CRYSTAL
PRIMVEC
   9.9600000000000009   5.7504086809999997   0.0000000000000000
  -4.9800000000000004   8.6256130219999996   0.0000000000000000
   0.0000000000000000   0.0000000000000000  15.0000000000000000
PRIMCOORD
 36   1
Mo      4.9584400000   12.4467500000    7.5068200000     -0.2649110000   -0.1445560000   -0.0007980000
Mo      3.2983400000    9.5715300000    7.5068200000     -0.0542580000   -0.0357680000   -0.0002520000
Mo      8.2784200000    6.6963700000    7.5068200000     -0.2730900000   -0.1367140000   -0.0007650000
Mo      6.6184700000    9.5715800000    7.5068200000     -0.2768640000   -0.1357640000    0.0019690000
Mo     -1.6816600000    6.6963300000    7.5068200000      0.0595050000    0.0405560000   -0.0011400000
Mo     -0.0216400000    3.8210900000    7.5068200000      0.0547450000    0.0388260000   -0.0007800000
Mo      1.6383900000    0.9459200000    7.5068200000      0.0605450000    0.0359980000    0.0014900000
Mo      4.9583600000    6.6962900000    7.5068200000     -0.0601880000   -0.0411060000   -0.0001220000
Mo      6.6183900000    3.8211300000    7.5068200000     -0.0612820000   -0.0444820000    0.0010450000
Mo      3.2984200000    3.8211700000    7.5068200000      0.2712540000    0.1307080000   -0.0010170000
Mo      1.6384700000    6.6963800000    7.5068200000      0.2754060000    0.1430950000    0.0003940000
Mo     -0.0215600000    9.5715500000    7.5068200000      0.2711690000    0.1406920000   -0.0003020000
Se      4.9525100000    8.6097400000    9.1744200000      0.0858670000    0.0504720000   -0.0691910000
Se      3.2923300000   11.4849300000    5.8392200000      0.0841960000    0.0489790000    0.0680290000
Se      3.2923800000   11.4849500000    9.1744300000      0.0836030000    0.0491440000   -0.0680510000
Se      1.6322000000    8.6094900000    9.1744700000     -0.0685460000   -0.0320380000   -0.1194890000
Se      1.6321600000    8.6094500000    5.8391800000     -0.0685000000   -0.0316350000    0.1195410000
Se      6.6124500000    5.7344300000    9.1744300000      0.0853380000    0.0509430000   -0.0664310000
Se      6.6124100000    5.7343900000    5.8392200000      0.0854060000    0.0515430000    0.0662730000
Se      4.9524600000    8.6097100000    5.8392700000      0.0852540000    0.0501100000    0.0684570000
Se     -1.6876700000    8.6097300000    5.8392200000     -0.0853840000   -0.0497130000   -0.0667720000
Se     -1.6876200000    8.6097400000    9.1744300000     -0.0860780000   -0.0489950000    0.0668280000
Se      4.9522100000    2.8591600000    5.8392300000     -0.0668380000   -0.0278520000    0.1230170000
Se      4.9522600000    2.8591900000    9.1744600000     -0.0662870000   -0.0278260000   -0.1229250000
Se      3.2921300000    5.7343900000    9.1744700000     -0.0674080000   -0.0266430000   -0.1188570000
Se      3.2920800000    5.7343800000    5.8391800000     -0.0669850000   -0.0272490000    0.1192070000
Se     -0.0275400000    5.7345100000    5.8392700000     -0.0864330000   -0.0505510000   -0.0693020000
Se     -0.0274900000    5.7345400000    9.1744200000     -0.0860090000   -0.0504130000    0.0698990000
Se      6.6122000000   11.4846900000    9.1744700000      0.0651380000    0.0292310000    0.1175790000
Se      1.6324100000    2.8591900000    5.8392200000     -0.0833060000   -0.0476250000   -0.0682510000
Se      1.6324500000    2.8592200000    9.1744300000     -0.0833780000   -0.0485830000    0.0684370000
Se      6.6121600000   11.4846600000    5.8391800000      0.0652140000    0.0302810000   -0.1175240000
Se      8.2720800000    8.6095900000    5.8391800000      0.0700080000    0.0278170000   -0.1205170000
Se      8.2721300000    8.6096000000    9.1744700000      0.0691900000    0.0282780000    0.1203340000
Se      4.9522600000   14.3600100000    9.1744600000      0.0673910000    0.0311040000    0.1222140000
Se      4.9522100000   14.3599800000    5.8392300000      0.0663820000    0.0305860000   -0.1222030000
