CRYSTAL
PRIMVEC
   9.9600000000000009   5.7504086809999997   0.0000000000000000
  -4.9800000000000004   8.6256130219999996   0.0000000000000000
   0.0000000000000000   0.0000000000000000  15.0000000000000000
PRIMCOORD
 36   1
Mo      4.9584400000   12.4467500000    7.5068200000      0.0003650000    0.0002930000   -0.0039630000
Mo      3.2983400000    9.5715300000    7.5068200000      0.0002600000   -0.0002440000   -0.0042970000
Mo      8.2784200000    6.6963700000    7.5068200000      0.0002000000   -0.0002790000   -0.0026690000
Mo      6.6184700000    9.5715800000    7.5068200000     -0.0000170000    0.0002870000    0.0064730000
Mo     -1.6816600000    6.6963300000    7.5068200000     -0.0003150000    0.0002580000    0.0044800000
Mo     -0.0216400000    3.8210900000    7.5068200000      0.0002360000   -0.0001060000    0.0053850000
Mo      1.6383900000    0.9459200000    7.5068200000     -0.0000180000   -0.0002160000   -0.0080370000
Mo      4.9583600000    6.6962900000    7.5068200000     -0.0000300000    0.0001000000   -0.0054330000
Mo      6.6183900000    3.8211300000    7.5068200000     -0.0001630000    0.0002120000    0.0079380000
Mo      3.2984200000    3.8211700000    7.5068200000     -0.0002580000    0.0001890000    0.0026990000
Mo      1.6384700000    6.6963800000    7.5068200000      0.0001080000   -0.0003860000   -0.0064700000
Mo     -0.0215600000    9.5715500000    7.5068200000     -0.0003140000   -0.0001460000    0.0038860000
Se      4.9525100000    8.6097400000    9.1744200000      0.0343600000   -0.0018680000    0.2572190000
Se      3.2923300000   11.4849300000    5.8392200000     -0.0757330000    0.1540890000   -0.1518260000
Se      3.2923800000   11.4849500000    9.1744300000      0.0823440000   -0.1581410000   -0.1520290000
Se      1.6322000000    8.6094900000    9.1744700000      0.0590160000    0.0416840000    0.0560810000
Se      1.6321600000    8.6094500000    5.8391800000     -0.0556690000   -0.0421250000    0.0588800000
Se      6.6124500000    5.7344300000    9.1744300000     -0.1061780000    0.1647680000   -0.1130950000
Se      6.6124100000    5.7343900000    5.8392200000      0.1035930000   -0.1581650000   -0.1163780000
Se      4.9524600000    8.6097100000    5.8392700000     -0.0385000000   -0.0006790000    0.2625320000
Se     -1.6876700000    8.6097300000    5.8392200000      0.0759300000   -0.1515690000    0.1507290000
Se     -1.6876200000    8.6097400000    9.1744300000     -0.0782290000    0.1588520000    0.1507300000
Se      4.9522100000    2.8591600000    5.8392300000      0.1518850000    0.0834220000   -0.1468560000
Se      4.9522600000    2.8591900000    9.1744600000     -0.1549000000   -0.0892940000   -0.1445460000
Se      3.2921300000    5.7343900000    9.1744700000      0.0909770000    0.0439780000    0.0846650000
Se      3.2920800000    5.7343800000    5.8391800000     -0.0901650000   -0.0370480000    0.0853890000
Se     -0.0275400000    5.7345100000    5.8392700000      0.0381710000   -0.0032690000   -0.2622610000
Se     -0.0274900000    5.7345400000    9.1744200000     -0.0326360000    0.0012540000   -0.2578420000
Se      6.6122000000   11.4846900000    9.1744700000     -0.0625900000   -0.0423740000   -0.0550630000
Se      1.6324100000    2.8591900000    5.8392200000     -0.1049860000    0.1587400000    0.1147390000
Se      1.6324500000    2.8592200000    9.1744300000      0.1023660000   -0.1636910000    0.1124890000
Se      6.6121600000   11.4846600000    5.8391800000      0.0541710000    0.0434200000   -0.0571350000
Se      8.2720800000    8.6095900000    5.8391800000      0.0917320000    0.0399860000   -0.0846090000
Se      8.2721300000    8.6096000000    9.1744700000     -0.0892540000   -0.0424500000   -0.0841740000
Se      4.9522600000   14.3600100000    9.1744600000      0.1558380000    0.0872370000    0.1455600000
Se      4.9522100000   14.3599800000    5.8392300000     -0.1515340000   -0.0867580000    0.1468070000
