CRYSTAL
PRIMVEC
   9.9600000000000009   5.7504086809999997   0.0000000000000000
  -4.9800000000000004   8.6256130219999996   0.0000000000000000
   0.0000000000000000   0.0000000000000000  15.0000000000000000
PRIMCOORD
 36   1
Mo      4.9584400000   12.4467500000    7.5068200000     -0.0303270000   -0.1865490000    0.0000020000
Mo      3.2983400000    9.5715300000    7.5068200000     -0.1657870000    0.0853140000    0.0003750000
Mo      8.2784200000    6.6963700000    7.5068200000     -0.1636980000    0.0859680000    0.0002280000
Mo      6.6184700000    9.5715800000    7.5068200000      0.1907570000    0.0987610000   -0.0002590000
Mo     -1.6816600000    6.6963300000    7.5068200000     -0.1657470000    0.0853700000    0.0004240000
Mo     -0.0216400000    3.8210900000    7.5068200000     -0.0320650000   -0.1880360000   -0.0001340000
Mo      1.6383900000    0.9459200000    7.5068200000      0.1946570000    0.1007320000   -0.0004470000
Mo      4.9583600000    6.6962900000    7.5068200000     -0.0320440000   -0.1879980000   -0.0000960000
Mo      6.6183900000    3.8211300000    7.5068200000      0.1946520000    0.1009300000   -0.0002760000
Mo      3.2984200000    3.8211700000    7.5068200000     -0.1636300000    0.0857730000    0.0002110000
Mo      1.6384700000    6.6963800000    7.5068200000      0.1908100000    0.0987010000   -0.0004700000
Mo     -0.0215600000    9.5715500000    7.5068200000     -0.0299560000   -0.1863970000    0.0000410000
Se      4.9525100000    8.6097400000    9.1744200000     -0.0038110000   -0.0010940000    0.2089030000
Se      3.2923300000   11.4849300000    5.8392200000     -0.0038550000    0.0127510000    0.1145390000
Se      3.2923800000   11.4849500000    9.1744300000     -0.0039060000    0.0126170000   -0.1150860000
Se      1.6322000000    8.6094900000    9.1744700000      0.0101900000   -0.0093950000   -0.0951860000
Se      1.6321600000    8.6094500000    5.8391800000      0.0100960000   -0.0095910000    0.0948160000
Se      6.6124500000    5.7344300000    9.1744300000      0.0094970000   -0.0105080000   -0.0947750000
Se      6.6124100000    5.7343900000    5.8392200000      0.0095110000   -0.0105490000    0.0944460000
Se      4.9524600000    8.6097100000    5.8392700000     -0.0040170000   -0.0012890000   -0.2081420000
Se     -1.6876700000    8.6097300000    5.8392200000     -0.0038040000    0.0127390000    0.1144270000
Se     -1.6876200000    8.6097400000    9.1744300000     -0.0039880000    0.0125500000   -0.1149250000
Se      4.9522100000    2.8591600000    5.8392300000     -0.0059770000   -0.0023670000   -0.2087620000
Se      4.9522600000    2.8591900000    9.1744600000     -0.0057220000   -0.0022620000    0.2095040000
Se      3.2921300000    5.7343900000    9.1744700000     -0.0027420000    0.0128320000   -0.1152070000
Se      3.2920800000    5.7343800000    5.8391800000     -0.0024150000    0.0129700000    0.1149500000
Se     -0.0275400000    5.7345100000    5.8392700000     -0.0039670000   -0.0012690000   -0.2080890000
Se     -0.0274900000    5.7345400000    9.1744200000     -0.0037200000   -0.0010900000    0.2089850000
Se      6.6122000000   11.4846900000    9.1744700000      0.0101190000   -0.0094850000   -0.0951110000
Se      1.6324100000    2.8591900000    5.8392200000      0.0094960000   -0.0104630000    0.0944350000
Se      1.6324500000    2.8592200000    9.1744300000      0.0094610000   -0.0103360000   -0.0945910000
Se      6.6121600000   11.4846600000    5.8391800000      0.0101480000   -0.0096010000    0.0946090000
Se      8.2720800000    8.6095900000    5.8391800000     -0.0024440000    0.0128490000    0.1149150000
Se      8.2721300000    8.6096000000    9.1744700000     -0.0026340000    0.0127600000   -0.1152980000
Se      4.9522600000   14.3600100000    9.1744600000     -0.0057160000   -0.0022190000    0.2096830000
Se      4.9522100000   14.3599800000    5.8392300000     -0.0061010000   -0.0023030000   -0.2088050000
