CRYSTAL
PRIMVEC
   9.9600000000000009   5.7504086809999997   0.0000000000000000
  -4.9800000000000004   8.6256130219999996   0.0000000000000000
   0.0000000000000000   0.0000000000000000  15.0000000000000000
PRIMCOORD
 36   1
Mo      4.9584400000   12.4467500000    7.5068200000      0.0000620000    0.0002900000   -0.0009290000
Mo      3.2983400000    9.5715300000    7.5068200000     -0.0001700000   -0.0001460000   -0.0008610000
Mo      8.2784200000    6.6963700000    7.5068200000      0.0001160000    0.0000790000    0.0007470000
Mo      6.6184700000    9.5715800000    7.5068200000      0.0002690000   -0.0001380000    0.0001250000
Mo     -1.6816600000    6.6963300000    7.5068200000     -0.0000420000   -0.0001490000   -0.0009040000
Mo     -0.0216400000    3.8210900000    7.5068200000     -0.0000760000   -0.0001430000    0.0010940000
Mo      1.6383900000    0.9459200000    7.5068200000     -0.0003280000    0.0000520000   -0.0000570000
Mo      4.9583600000    6.6962900000    7.5068200000     -0.0001420000   -0.0002850000    0.0011290000
Mo      6.6183900000    3.8211300000    7.5068200000     -0.0002440000    0.0001670000   -0.0001820000
Mo      3.2984200000    3.8211700000    7.5068200000      0.0000840000    0.0002880000    0.0006940000
Mo      1.6384700000    6.6963800000    7.5068200000      0.0003400000   -0.0001640000    0.0001650000
Mo     -0.0215600000    9.5715500000    7.5068200000      0.0001300000    0.0001450000   -0.0009880000
Se      4.9525100000    8.6097400000    9.1744200000     -0.1012840000    0.1754120000    0.0005590000
Se      3.2923300000   11.4849300000    5.8392200000      0.1103060000   -0.1712780000   -0.0034430000
Se      3.2923800000   11.4849500000    9.1744300000     -0.1104880000    0.1713930000   -0.0028960000
Se      1.6322000000    8.6094900000    9.1744700000      0.0938280000   -0.1829840000   -0.0026630000
Se      1.6321600000    8.6094500000    5.8391800000     -0.0935790000    0.1822470000   -0.0031800000
Se      6.6124500000    5.7344300000    9.1744300000     -0.0937110000    0.1826410000    0.0024270000
Se      6.6124100000    5.7343900000    5.8392200000      0.0935940000   -0.1817330000    0.0028940000
Se      4.9524600000    8.6097100000    5.8392700000      0.1014680000   -0.1763430000    0.0012500000
Se     -1.6876700000    8.6097300000    5.8392200000      0.1103140000   -0.1708520000   -0.0031640000
Se     -1.6876200000    8.6097400000    9.1744300000     -0.1108270000    0.1713710000   -0.0033150000
Se      4.9522100000    2.8591600000    5.8392300000     -0.1020730000    0.1759550000   -0.0005720000
Se      4.9522600000    2.8591900000    9.1744600000      0.1013450000   -0.1754970000   -0.0001980000
Se      3.2921300000    5.7343900000    9.1744700000      0.1115540000   -0.1718740000    0.0029000000
Se      3.2920800000    5.7343800000    5.8391800000     -0.1111510000    0.1719560000    0.0030110000
Se     -0.0275400000    5.7345100000    5.8392700000      0.1013830000   -0.1759360000    0.0005790000
Se     -0.0274900000    5.7345400000    9.1744200000     -0.1008240000    0.1756350000    0.0007410000
Se      6.6122000000   11.4846900000    9.1744700000      0.0939030000   -0.1832230000   -0.0023000000
Se      1.6324100000    2.8591900000    5.8392200000      0.0938660000   -0.1819850000    0.0028900000
Se      1.6324500000    2.8592200000    9.1744300000     -0.0937540000    0.1819980000    0.0020020000
Se      6.6121600000   11.4846600000    5.8391800000     -0.0939890000    0.1829530000   -0.0031230000
Se      8.2720800000    8.6095900000    5.8391800000     -0.1106680000    0.1713830000    0.0032940000
Se      8.2721300000    8.6096000000    9.1744700000      0.1109400000   -0.1721650000    0.0030570000
Se      4.9522600000   14.3600100000    9.1744600000      0.1009350000   -0.1756570000   -0.0003080000
Se      4.9522100000   14.3599800000    5.8392300000     -0.1010800000    0.1765870000   -0.0004860000
