CRYSTAL
PRIMVEC
   9.9600000000000009   5.7504086809999997   0.0000000000000000
  -4.9800000000000004   8.6256130219999996   0.0000000000000000
   0.0000000000000000   0.0000000000000000  15.0000000000000000
PRIMCOORD
 36   1
Mo      4.9584400000   12.4467500000    7.5068200000      0.0003410000    0.0001280000    0.0082190000
Mo      3.2983400000    9.5715300000    7.5068200000     -0.0000330000   -0.0002280000   -0.0087030000
Mo      8.2784200000    6.6963700000    7.5068200000      0.0000200000   -0.0001220000   -0.0083640000
Mo      6.6184700000    9.5715800000    7.5068200000     -0.0002310000    0.0001430000    0.0002580000
Mo     -1.6816600000    6.6963300000    7.5068200000     -0.0000830000   -0.0001700000   -0.0085710000
Mo     -0.0216400000    3.8210900000    7.5068200000      0.0003500000    0.0000600000    0.0081660000
Mo      1.6383900000    0.9459200000    7.5068200000     -0.0002500000    0.0001960000    0.0004460000
Mo      4.9583600000    6.6962900000    7.5068200000      0.0002020000    0.0000580000    0.0081380000
Mo      6.6183900000    3.8211300000    7.5068200000     -0.0003220000    0.0001320000    0.0004500000
Mo      3.2984200000    3.8211700000    7.5068200000     -0.0000640000   -0.0001340000   -0.0084610000
Mo      1.6384700000    6.6963800000    7.5068200000     -0.0002080000    0.0001570000    0.0002000000
Mo     -0.0215600000    9.5715500000    7.5068200000      0.0002860000    0.0001040000    0.0082370000
Se      4.9525100000    8.6097400000    9.1744200000      0.0850230000   -0.1640150000    0.0008200000
Se      3.2923300000   11.4849300000    5.8392200000      0.2131180000    0.0084860000    0.0330540000
Se      3.2923800000   11.4849500000    9.1744300000     -0.2113090000   -0.0090100000    0.0325180000
Se      1.6322000000    8.6094900000    9.1744700000      0.1186710000    0.1720210000   -0.0341630000
Se      1.6321600000    8.6094500000    5.8391800000     -0.1195750000   -0.1690790000   -0.0344120000
Se      6.6124500000    5.7344300000    9.1744300000      0.1255290000    0.1748180000   -0.0332120000
Se      6.6124100000    5.7343900000    5.8392200000     -0.1261480000   -0.1729270000   -0.0330380000
Se      4.9524600000    8.6097100000    5.8392700000     -0.0862840000    0.1625620000    0.0005010000
Se     -1.6876700000    8.6097300000    5.8392200000      0.2153510000    0.0078330000    0.0317770000
Se     -1.6876200000    8.6097400000    9.1744300000     -0.2130910000   -0.0084160000    0.0313890000
Se      4.9522100000    2.8591600000    5.8392300000     -0.0864940000    0.1624230000    0.0005010000
Se      4.9522600000    2.8591900000    9.1744600000      0.0849760000   -0.1642460000    0.0001540000
Se      3.2921300000    5.7343900000    9.1744700000     -0.2041010000   -0.0059590000    0.0335920000
Se      3.2920800000    5.7343800000    5.8391800000      0.2068410000    0.0050170000    0.0327830000
Se     -0.0275400000    5.7345100000    5.8392700000     -0.0873900000    0.1635180000   -0.0004670000
Se     -0.0274900000    5.7345400000    9.1744200000      0.0846880000   -0.1652220000   -0.0000710000
Se      6.6122000000   11.4846900000    9.1744700000      0.1178510000    0.1718190000   -0.0344670000
Se      1.6324100000    2.8591900000    5.8392200000     -0.1264660000   -0.1728980000   -0.0310030000
Se      1.6324500000    2.8592200000    9.1744300000      0.1263090000    0.1748150000   -0.0304640000
Se      6.6121600000   11.4846600000    5.8391800000     -0.1178560000   -0.1697800000   -0.0339050000
Se      8.2720800000    8.6095900000    5.8391800000      0.2064910000    0.0051310000    0.0324310000
Se      8.2721300000    8.6096000000    9.1744700000     -0.2046470000   -0.0051830000    0.0323020000
Se      4.9522600000   14.3600100000    9.1744600000      0.0863390000   -0.1647580000    0.0018260000
Se      4.9522100000   14.3599800000    5.8392300000     -0.0878390000    0.1629660000    0.0015820000
