CRYSTAL
PRIMVEC
   9.9600000000000009   5.7504086809999997   0.0000000000000000
  -4.9800000000000004   8.6256130219999996   0.0000000000000000
   0.0000000000000000   0.0000000000000000  15.0000000000000000
PRIMCOORD
 36   1
Mo      4.9584400000   12.4467500000    7.5068200000     -0.0001650000    0.0001140000    0.0058950000
Mo      3.2983400000    9.5715300000    7.5068200000      0.0002620000   -0.0001030000    0.0051960000
Mo      8.2784200000    6.6963700000    7.5068200000      0.0001450000    0.0000420000    0.0052040000
Mo      6.6184700000    9.5715800000    7.5068200000      0.0001140000   -0.0001150000   -0.0112970000
Mo     -1.6816600000    6.6963300000    7.5068200000      0.0002310000   -0.0000160000    0.0051400000
Mo     -0.0216400000    3.8210900000    7.5068200000     -0.0002220000    0.0001420000    0.0058400000
Mo      1.6383900000    0.9459200000    7.5068200000      0.0000410000   -0.0000880000   -0.0110960000
Mo      4.9583600000    6.6962900000    7.5068200000     -0.0001280000    0.0001950000    0.0058750000
Mo      6.6183900000    3.8211300000    7.5068200000     -0.0000440000   -0.0000720000   -0.0111640000
Mo      3.2984200000    3.8211700000    7.5068200000      0.0001770000   -0.0000020000    0.0051310000
Mo      1.6384700000    6.6963800000    7.5068200000     -0.0000040000   -0.0001500000   -0.0111720000
Mo     -0.0215600000    9.5715500000    7.5068200000     -0.0002170000    0.0001410000    0.0057240000
Se      4.9525100000    8.6097400000    9.1744200000      0.1981000000    0.1089480000   -0.0385920000
Se      3.2923300000   11.4849300000    5.8392200000      0.0215230000    0.1932430000    0.0214390000
Se      3.2923800000   11.4849500000    9.1744300000     -0.0242880000   -0.1938850000    0.0201630000
Se      1.6322000000    8.6094900000    9.1744700000     -0.1661920000    0.0914070000    0.0178680000
Se      1.6321600000    8.6094500000    5.8391800000      0.1683280000   -0.0935670000    0.0185780000
Se      6.6124500000    5.7344300000    9.1744300000     -0.1690510000    0.0869270000    0.0182200000
Se      6.6124100000    5.7343900000    5.8392200000      0.1717780000   -0.0897610000    0.0186050000
Se      4.9524600000    8.6097100000    5.8392700000     -0.1975490000   -0.1052070000   -0.0387210000
Se     -1.6876700000    8.6097300000    5.8392200000      0.0208550000    0.1927710000    0.0203440000
Se     -1.6876200000    8.6097400000    9.1744300000     -0.0240310000   -0.1944470000    0.0196920000
Se      4.9522100000    2.8591600000    5.8392300000     -0.1891450000   -0.1004480000   -0.0383380000
Se      4.9522600000    2.8591900000    9.1744600000      0.1900680000    0.1038590000   -0.0391920000
Se      3.2921300000    5.7343900000    9.1744700000     -0.0193110000   -0.1932110000    0.0196650000
Se      3.2920800000    5.7343800000    5.8391800000      0.0156780000    0.1916370000    0.0199060000
Se     -0.0275400000    5.7345100000    5.8392700000     -0.1968870000   -0.1042750000   -0.0378070000
Se     -0.0274900000    5.7345400000    9.1744200000      0.1978880000    0.1078230000   -0.0384870000
Se      6.6122000000   11.4846900000    9.1744700000     -0.1663620000    0.0910170000    0.0174510000
Se      1.6324100000    2.8591900000    5.8392200000      0.1724780000   -0.0899520000    0.0186110000
Se      1.6324500000    2.8592200000    9.1744300000     -0.1699130000    0.0883090000    0.0182630000
Se      6.6121600000   11.4846600000    5.8391800000      0.1682290000   -0.0922890000    0.0184420000
Se      8.2720800000    8.6095900000    5.8391800000      0.0154910000    0.1913280000    0.0213720000
Se      8.2721300000    8.6096000000    9.1744700000     -0.0182950000   -0.1923920000    0.0220000000
Se      4.9522600000   14.3600100000    9.1744600000      0.1886860000    0.1032350000   -0.0404550000
Se      4.9522100000   14.3599800000    5.8392300000     -0.1879870000   -0.1010490000   -0.0393160000
