CRYSTAL
PRIMVEC
   9.9600000000000009   5.7504086809999997   0.0000000000000000
  -4.9800000000000004   8.6256130219999996   0.0000000000000000
   0.0000000000000000   0.0000000000000000  15.0000000000000000
PRIMCOORD
 36   1
Mo      4.9584400000   12.4467500000    7.5068200000      0.0004190000   -0.0005680000    0.0030210000
Mo      3.2983400000    9.5715300000    7.5068200000     -0.0002040000    0.0005860000   -0.0019340000
Mo      8.2784200000    6.6963700000    7.5068200000     -0.0004590000    0.0008940000    0.0032210000
Mo      6.6184700000    9.5715800000    7.5068200000     -0.0001580000   -0.0004520000    0.0010760000
Mo     -1.6816600000    6.6963300000    7.5068200000     -0.0003560000    0.0004000000   -0.0019060000
Mo     -0.0216400000    3.8210900000    7.5068200000      0.0002250000   -0.0004540000   -0.0018980000
Mo      1.6383900000    0.9459200000    7.5068200000     -0.0000280000   -0.0000570000   -0.0041330000
Mo      4.9583600000    6.6962900000    7.5068200000      0.0004900000   -0.0000490000   -0.0022510000
Mo      6.6183900000    3.8211300000    7.5068200000     -0.0002830000   -0.0004950000   -0.0039530000
Mo      3.2984200000    3.8211700000    7.5068200000     -0.0000680000    0.0001890000    0.0032000000
Mo      1.6384700000    6.6963800000    7.5068200000     -0.0001670000   -0.0001870000    0.0010700000
Mo     -0.0215600000    9.5715500000    7.5068200000      0.0004410000    0.0001070000    0.0030650000
Se      4.9525100000    8.6097400000    9.1744200000     -0.1754250000   -0.1018040000   -0.0026740000
Se      3.2923300000   11.4849300000    5.8392200000      0.1780830000    0.1041570000   -0.0029950000
Se      3.2923800000   11.4849500000    9.1744300000     -0.1778520000   -0.1030600000   -0.0024620000
Se      1.6322000000    8.6094900000    9.1744700000     -0.1767220000   -0.1022650000    0.0036490000
Se      1.6321600000    8.6094500000    5.8391800000      0.1774560000    0.1018730000    0.0031350000
Se      6.6124500000    5.7344300000    9.1744300000     -0.1783170000   -0.1032770000   -0.0022300000
Se      6.6124100000    5.7343900000    5.8392200000      0.1790350000    0.1020860000   -0.0023920000
Se      4.9524600000    8.6097100000    5.8392700000      0.1742400000    0.1017640000   -0.0034540000
Se     -1.6876700000    8.6097300000    5.8392200000      0.1785260000    0.1039990000   -0.0029030000
Se     -1.6876200000    8.6097400000    9.1744300000     -0.1780170000   -0.1030740000   -0.0024090000
Se      4.9522100000    2.8591600000    5.8392300000      0.1734250000    0.1008480000    0.0022650000
Se      4.9522600000    2.8591900000    9.1744600000     -0.1743170000   -0.1007930000    0.0030180000
Se      3.2921300000    5.7343900000    9.1744700000     -0.1764510000   -0.1024480000    0.0032280000
Se      3.2920800000    5.7343800000    5.8391800000      0.1771570000    0.1030750000    0.0033320000
Se     -0.0275400000    5.7345100000    5.8392700000      0.1745280000    0.1010660000   -0.0028140000
Se     -0.0274900000    5.7345400000    9.1744200000     -0.1757840000   -0.1016800000   -0.0033570000
Se      6.6122000000   11.4846900000    9.1744700000     -0.1767060000   -0.1028320000    0.0037980000
Se      1.6324100000    2.8591900000    5.8392200000      0.1788220000    0.1028030000   -0.0026500000
Se      1.6324500000    2.8592200000    9.1744300000     -0.1781120000   -0.1031720000   -0.0020450000
Se      6.6121600000   11.4846600000    5.8391800000      0.1777230000    0.1014360000    0.0034130000
Se      8.2720800000    8.6095900000    5.8391800000      0.1770250000    0.1036670000    0.0026160000
Se      8.2721300000    8.6096000000    9.1744700000     -0.1768620000   -0.1021100000    0.0037580000
Se      4.9522600000   14.3600100000    9.1744600000     -0.1746020000   -0.1010330000    0.0025910000
Se      4.9522100000   14.3599800000    5.8392300000      0.1731360000    0.1006710000    0.0030110000
