CRYSTAL
PRIMVEC
   9.9600000000000009   5.7504086809999997   0.0000000000000000
  -4.9800000000000004   8.6256130219999996   0.0000000000000000
   0.0000000000000000   0.0000000000000000  15.0000000000000000
PRIMCOORD
 36   1
Mo      4.9584400000   12.4467500000    7.5068200000     -0.0516570000    0.0583600000    0.1591510000
Mo      3.2983400000    9.5715300000    7.5068200000     -0.0519780000    0.0582250000    0.1591420000
Mo      8.2784200000    6.6963700000    7.5068200000     -0.0519370000    0.0582650000    0.1591580000
Mo      6.6184700000    9.5715800000    7.5068200000     -0.0519430000    0.0585110000    0.1591780000
Mo     -1.6816600000    6.6963300000    7.5068200000     -0.0519380000    0.0582440000    0.1591330000
Mo     -0.0216400000    3.8210900000    7.5068200000     -0.0517070000    0.0583660000    0.1591410000
Mo      1.6383900000    0.9459200000    7.5068200000     -0.0519750000    0.0584980000    0.1592030000
Mo      4.9583600000    6.6962900000    7.5068200000     -0.0517100000    0.0583580000    0.1591370000
Mo      6.6183900000    3.8211300000    7.5068200000     -0.0519770000    0.0584800000    0.1591940000
Mo      3.2984200000    3.8211700000    7.5068200000     -0.0519360000    0.0582760000    0.1591550000
Mo      1.6384700000    6.6963800000    7.5068200000     -0.0519680000    0.0585210000    0.1591910000
Mo     -0.0215600000    9.5715500000    7.5068200000     -0.0516660000    0.0583580000    0.1591300000
Se      4.9525100000    8.6097400000    9.1744200000     -0.0469170000    0.0530630000    0.1446830000
Se      3.2923300000   11.4849300000    5.8392200000     -0.0471170000    0.0531950000    0.1447900000
Se      3.2923800000   11.4849500000    9.1744300000     -0.0468590000    0.0531780000    0.1444560000
Se      1.6322000000    8.6094900000    9.1744700000     -0.0471650000    0.0531290000    0.1446290000
Se      1.6321600000    8.6094500000    5.8391800000     -0.0472830000    0.0529380000    0.1444630000
Se      6.6124500000    5.7344300000    9.1744300000     -0.0471130000    0.0531560000    0.1446180000
Se      6.6124100000    5.7343900000    5.8392200000     -0.0472200000    0.0529630000    0.1444960000
Se      4.9524600000    8.6097100000    5.8392700000     -0.0471630000    0.0529240000    0.1447450000
Se     -1.6876700000    8.6097300000    5.8392200000     -0.0471070000    0.0532120000    0.1447870000
Se     -1.6876200000    8.6097400000    9.1744300000     -0.0468440000    0.0531870000    0.1444360000
Se      4.9522100000    2.8591600000    5.8392300000     -0.0472070000    0.0528900000    0.1447330000
Se      4.9522600000    2.8591900000    9.1744600000     -0.0469720000    0.0530220000    0.1447060000
Se      3.2921300000    5.7343900000    9.1744700000     -0.0469110000    0.0531950000    0.1444720000
Se      3.2920800000    5.7343800000    5.8391800000     -0.0471830000    0.0531930000    0.1447660000
Se     -0.0275400000    5.7345100000    5.8392700000     -0.0471470000    0.0529300000    0.1447530000
Se     -0.0274900000    5.7345400000    9.1744200000     -0.0469350000    0.0530630000    0.1446890000
Se      6.6122000000   11.4846900000    9.1744700000     -0.0471200000    0.0531280000    0.1446240000
Se      1.6324100000    2.8591900000    5.8392200000     -0.0472270000    0.0529770000    0.1444910000
Se      1.6324500000    2.8592200000    9.1744300000     -0.0471230000    0.0531760000    0.1446330000
Se      6.6121600000   11.4846600000    5.8391800000     -0.0472470000    0.0529490000    0.1444500000
Se      8.2720800000    8.6095900000    5.8391800000     -0.0471530000    0.0531740000    0.1447560000
Se      8.2721300000    8.6096000000    9.1744700000     -0.0469020000    0.0531770000    0.1444750000
Se      4.9522600000   14.3600100000    9.1744600000     -0.0469830000    0.0530380000    0.1447300000
Se      4.9522100000   14.3599800000    5.8392300000     -0.0472130000    0.0529000000    0.1447540000
