CRYSTAL
PRIMVEC
   9.9600000000000009   5.7504086809999997   0.0000000000000000
  -4.9800000000000004   8.6256130219999996   0.0000000000000000
   0.0000000000000000   0.0000000000000000  15.0000000000000000
PRIMCOORD
 36   1
Mo      4.9584400000   12.4467500000    7.5068200000      0.1475040000    0.2167420000   -0.0006940000
Mo      3.2983400000    9.5715300000    7.5068200000     -0.2273250000    0.0610090000    0.0017000000
Mo      8.2784200000    6.6963700000    7.5068200000     -0.2605650000   -0.0004130000    0.0009120000
Mo      6.6184700000    9.5715800000    7.5068200000      0.1076530000   -0.2071550000    0.0000300000
Mo     -1.6816600000    6.6963300000    7.5068200000     -0.2268910000    0.0622480000    0.0011020000
Mo     -0.0216400000    3.8210900000    7.5068200000      0.0779700000    0.2145280000   -0.0008090000
Mo      1.6383900000    0.9459200000    7.5068200000      0.1434940000   -0.2637480000   -0.0004670000
Mo      4.9583600000    6.6962900000    7.5068200000      0.0758030000    0.2128530000   -0.0011080000
Mo      6.6183900000    3.8211300000    7.5068200000      0.1416680000   -0.2641780000   -0.0001300000
Mo      3.2984200000    3.8211700000    7.5068200000     -0.2621510000    0.0011780000    0.0012760000
Mo      1.6384700000    6.6963800000    7.5068200000      0.1087770000   -0.2083720000   -0.0007160000
Mo     -0.0215600000    9.5715500000    7.5068200000      0.1468400000    0.2193050000   -0.0009470000
Se      4.9525100000    8.6097400000    9.1744200000      0.0535280000   -0.0837510000    0.0011300000
Se      3.2923300000   11.4849300000    5.8392200000     -0.1086390000   -0.0126470000    0.0209730000
Se      3.2923800000   11.4849500000    9.1744300000     -0.1088510000   -0.0134320000   -0.0216080000
Se      1.6322000000    8.6094900000    9.1744700000      0.0341360000    0.0712910000    0.0065280000
Se      1.6321600000    8.6094500000    5.8391800000      0.0332660000    0.0708810000   -0.0065470000
Se      6.6124500000    5.7344300000    9.1744300000      0.0596930000    0.0917450000    0.0213300000
Se      6.6124100000    5.7343900000    5.8392200000      0.0589900000    0.0917260000   -0.0210920000
Se      4.9524600000    8.6097100000    5.8392700000      0.0541120000   -0.0846120000   -0.0012600000
Se     -1.6876700000    8.6097300000    5.8392200000     -0.1091310000   -0.0133020000    0.0218700000
Se     -1.6876200000    8.6097400000    9.1744300000     -0.1093320000   -0.0139640000   -0.0219380000
Se      4.9522100000    2.8591600000    5.8392300000      0.0485140000   -0.0775030000    0.0003600000
Se      4.9522600000    2.8591900000    9.1744600000      0.0479950000   -0.0768060000   -0.0003160000
Se      3.2921300000    5.7343900000    9.1744700000     -0.0776200000   -0.0004440000   -0.0073180000
Se      3.2920800000    5.7343800000    5.8391800000     -0.0774550000    0.0004200000    0.0074880000
Se     -0.0275400000    5.7345100000    5.8392700000      0.0537420000   -0.0849260000   -0.0006310000
Se     -0.0274900000    5.7345400000    9.1744200000      0.0531050000   -0.0844730000    0.0009330000
Se      6.6122000000   11.4846900000    9.1744700000      0.0336610000    0.0710450000    0.0059750000
Se      1.6324100000    2.8591900000    5.8392200000      0.0587210000    0.0912920000   -0.0204780000
Se      1.6324500000    2.8592200000    9.1744300000      0.0594440000    0.0916190000    0.0206060000
Se      6.6121600000   11.4846600000    5.8391800000      0.0330300000    0.0709780000   -0.0061650000
Se      8.2720800000    8.6095900000    5.8391800000     -0.0778070000    0.0000160000    0.0057050000
Se      8.2721300000    8.6096000000    9.1744700000     -0.0780770000   -0.0004480000   -0.0058760000
Se      4.9522600000   14.3600100000    9.1744600000      0.0470400000   -0.0760180000    0.0004030000
Se      4.9522100000   14.3599800000    5.8392300000      0.0475250000   -0.0764610000   -0.0002000000
