CRYSTAL
PRIMVEC
   9.9600000000000009   5.7504086809999997   0.0000000000000000
  -4.9800000000000004   8.6256130219999996   0.0000000000000000
   0.0000000000000000   0.0000000000000000  15.0000000000000000
PRIMCOORD
 36   1
Mo      4.9584400000   12.4467500000    7.5068200000     -0.0009990000   -0.0013660000   -0.3096330000
Mo      3.2983400000    9.5715300000    7.5068200000      0.0017920000    0.0022790000    0.2920070000
Mo      8.2784200000    6.6963700000    7.5068200000      0.0004280000   -0.0021500000    0.2909850000
Mo      6.6184700000    9.5715800000    7.5068200000     -0.0000850000    0.0013780000    0.0187470000
Mo     -1.6816600000    6.6963300000    7.5068200000     -0.0004030000    0.0018030000    0.2920520000
Mo     -0.0216400000    3.8210900000    7.5068200000     -0.0007990000   -0.0002250000   -0.3108260000
Mo      1.6383900000    0.9459200000    7.5068200000     -0.0022230000   -0.0000400000    0.0186770000
Mo      4.9583600000    6.6962900000    7.5068200000      0.0013430000    0.0001040000   -0.3108410000
Mo      6.6183900000    3.8211300000    7.5068200000     -0.0003980000    0.0010960000    0.0187260000
Mo      3.2984200000    3.8211700000    7.5068200000      0.0016300000   -0.0030210000    0.2909990000
Mo      1.6384700000    6.6963800000    7.5068200000      0.0006170000    0.0021860000    0.0186410000
Mo     -0.0215600000    9.5715500000    7.5068200000     -0.0009800000   -0.0009960000   -0.3095440000
Se      4.9525100000    8.6097400000    9.1744200000     -0.0515950000    0.0989880000   -0.0003320000
Se      3.2923300000   11.4849300000    5.8392200000      0.0543380000    0.0886950000    0.0047650000
Se      3.2923800000   11.4849500000    9.1744300000     -0.0533940000   -0.0895630000    0.0029250000
Se      1.6322000000    8.6094900000    9.1744700000      0.1031490000   -0.0109170000   -0.0037850000
Se      1.6321600000    8.6094500000    5.8391800000     -0.1044360000    0.0087310000   -0.0044070000
Se      6.6124500000    5.7344300000    9.1744300000      0.1042770000   -0.0098380000   -0.0044360000
Se      6.6124100000    5.7343900000    5.8392200000     -0.1047970000    0.0094560000   -0.0027310000
Se      4.9524600000    8.6097100000    5.8392700000      0.0505050000   -0.0999520000   -0.0001660000
Se     -1.6876700000    8.6097300000    5.8392200000      0.0549050000    0.0888060000    0.0041270000
Se     -1.6876200000    8.6097400000    9.1744300000     -0.0527770000   -0.0894670000    0.0035380000
Se      4.9522100000    2.8591600000    5.8392300000      0.0504610000   -0.0983230000    0.0003400000
Se      4.9522600000    2.8591900000    9.1744600000     -0.0513430000    0.0999170000   -0.0008900000
Se      3.2921300000    5.7343900000    9.1744700000     -0.0537390000   -0.0880000000    0.0058020000
Se      3.2920800000    5.7343800000    5.8391800000      0.0528710000    0.0893250000    0.0029130000
Se     -0.0275400000    5.7345100000    5.8392700000      0.0510600000   -0.1001200000   -0.0010580000
Se     -0.0274900000    5.7345400000    9.1744200000     -0.0510010000    0.0988060000    0.0006070000
Se      6.6122000000   11.4846900000    9.1744700000      0.1037600000   -0.0104100000   -0.0042290000
Se      1.6324100000    2.8591900000    5.8392200000     -0.1043070000    0.0097190000   -0.0038470000
Se      1.6324500000    2.8592200000    9.1744300000      0.1047310000   -0.0095490000   -0.0033320000
Se      6.6121600000   11.4846600000    5.8391800000     -0.1039280000    0.0092990000   -0.0039870000
Se      8.2720800000    8.6095900000    5.8391800000      0.0536620000    0.0892930000    0.0036570000
Se      8.2721300000    8.6096000000    9.1744700000     -0.0529890000   -0.0879920000    0.0050780000
Se      4.9522600000   14.3600100000    9.1744600000     -0.0505110000    0.1000770000   -0.0009940000
Se      4.9522100000   14.3599800000    5.8392300000      0.0513130000   -0.0981990000    0.0004560000
