CRYSTAL
PRIMVEC
   9.9600000000000009   5.7504086809999997   0.0000000000000000
  -4.9800000000000004   8.6256130219999996   0.0000000000000000
   0.0000000000000000   0.0000000000000000  15.0000000000000000
PRIMCOORD
 36   1
Mo      4.9584400000   12.4467500000    7.5068200000      0.0072020000   -0.0399740000    0.0003380000
Mo      3.2983400000    9.5715300000    7.5068200000     -0.0292030000    0.0187770000    0.0005640000
Mo      8.2784200000    6.6963700000    7.5068200000      0.0297710000   -0.0186750000   -0.0003760000
Mo      6.6184700000    9.5715800000    7.5068200000     -0.0351570000    0.0604060000   -0.0000980000
Mo     -1.6816600000    6.6963300000    7.5068200000     -0.0285960000    0.0190580000    0.0005690000
Mo     -0.0216400000    3.8210900000    7.5068200000     -0.0062380000    0.0406500000   -0.0003020000
Mo      1.6383900000    0.9459200000    7.5068200000      0.0358880000   -0.0599140000   -0.0000890000
Mo      4.9583600000    6.6962900000    7.5068200000     -0.0062500000    0.0402610000   -0.0003640000
Mo      6.6183900000    3.8211300000    7.5068200000      0.0355120000   -0.0600460000   -0.0000700000
Mo      3.2984200000    3.8211700000    7.5068200000      0.0278840000   -0.0191210000   -0.0004820000
Mo      1.6384700000    6.6963800000    7.5068200000     -0.0362040000    0.0594630000   -0.0001130000
Mo     -0.0215600000    9.5715500000    7.5068200000      0.0053340000   -0.0408840000    0.0003770000
Se      4.9525100000    8.6097400000    9.1744200000      0.0931440000   -0.1617250000    0.0117590000
Se      3.2923300000   11.4849300000    5.8392200000     -0.0566130000    0.0888260000   -0.1745500000
Se      3.2923800000   11.4849500000    9.1744300000     -0.0546460000    0.0865880000    0.1761090000
Se      1.6322000000    8.6094900000    9.1744700000      0.0395840000   -0.0725840000    0.1898080000
Se      1.6321600000    8.6094500000    5.8391800000      0.0396290000   -0.0744400000   -0.1867350000
Se      6.6124500000    5.7344300000    9.1744300000     -0.0388940000    0.0740400000   -0.1937070000
Se      6.6124100000    5.7343900000    5.8392200000     -0.0383260000    0.0749860000    0.1903160000
Se      4.9524600000    8.6097100000    5.8392700000      0.0933570000   -0.1639420000   -0.0104280000
Se     -1.6876700000    8.6097300000    5.8392200000     -0.0533410000    0.0901330000   -0.1785920000
Se     -1.6876200000    8.6097400000    9.1744300000     -0.0515290000    0.0881010000    0.1802390000
Se      4.9522100000    2.8591600000    5.8392300000     -0.0937170000    0.1645540000    0.0142830000
Se      4.9522600000    2.8591900000    9.1744600000     -0.0921000000    0.1624010000   -0.0150740000
Se      3.2921300000    5.7343900000    9.1744700000      0.0541030000   -0.0880910000   -0.1789760000
Se      3.2920800000    5.7343800000    5.8391800000      0.0563190000   -0.0895160000    0.1776630000
Se     -0.0275400000    5.7345100000    5.8392700000      0.0946990000   -0.1638970000   -0.0142900000
Se     -0.0274900000    5.7345400000    9.1744200000      0.0942520000   -0.1618120000    0.0146440000
Se      6.6122000000   11.4846900000    9.1744700000      0.0375670000   -0.0753700000    0.1934300000
Se      1.6324100000    2.8591900000    5.8392200000     -0.0381400000    0.0767410000    0.1867380000
Se      1.6324500000    2.8592200000    9.1744300000     -0.0374680000    0.0756840000   -0.1899870000
Se      6.6121600000   11.4846600000    5.8391800000      0.0382120000   -0.0770360000   -0.1901070000
Se      8.2720800000    8.6095900000    5.8391800000      0.0545310000   -0.0902810000    0.1752700000
Se      8.2721300000    8.6096000000    9.1744700000      0.0516700000   -0.0888790000   -0.1769470000
Se      4.9522600000   14.3600100000    9.1744600000     -0.0955230000    0.1616760000   -0.0113170000
Se      4.9522100000   14.3599800000    5.8392300000     -0.0969790000    0.1638260000    0.0104870000
