CRYSTAL
PRIMVEC
   9.9600000000000009   5.7504086809999997   0.0000000000000000
  -4.9800000000000004   8.6256130219999996   0.0000000000000000
   0.0000000000000000   0.0000000000000000  15.0000000000000000
PRIMCOORD
 36   1
Mo      4.9584400000   12.4467500000    7.5068200000     -0.0002420000   -0.0015180000   -0.0910270000
Mo      3.2983400000    9.5715300000    7.5068200000     -0.0008920000    0.0003330000   -0.1215570000
Mo      8.2784200000    6.6963700000    7.5068200000     -0.0015460000    0.0001190000   -0.1266150000
Mo      6.6184700000    9.5715800000    7.5068200000      0.0003830000    0.0006220000    0.2110390000
Mo     -1.6816600000    6.6963300000    7.5068200000     -0.0014420000    0.0003900000   -0.1214690000
Mo     -0.0216400000    3.8210900000    7.5068200000     -0.0001880000   -0.0012900000   -0.0861380000
Mo      1.6383900000    0.9459200000    7.5068200000      0.0012050000    0.0006280000    0.2140290000
Mo      4.9583600000    6.6962900000    7.5068200000     -0.0001880000   -0.0007140000   -0.0861310000
Mo      6.6183900000    3.8211300000    7.5068200000      0.0014380000    0.0006550000    0.2141210000
Mo      3.2984200000    3.8211700000    7.5068200000     -0.0008470000    0.0007650000   -0.1264030000
Mo      1.6384700000    6.6963800000    7.5068200000      0.0019780000    0.0009170000    0.2108040000
Mo     -0.0215600000    9.5715500000    7.5068200000      0.0004080000   -0.0009020000   -0.0911300000
Se      4.9525100000    8.6097400000    9.1744200000     -0.1406930000   -0.0599820000    0.0032610000
Se      3.2923300000   11.4849300000    5.8392200000     -0.1421420000    0.1170920000   -0.0001520000
Se      3.2923800000   11.4849500000    9.1744300000      0.1420280000   -0.1179870000    0.0009550000
Se      1.6322000000    8.6094900000    9.1744700000     -0.0005260000    0.1790810000   -0.0018060000
Se      1.6321600000    8.6094500000    5.8391800000      0.0013260000   -0.1791420000   -0.0029860000
Se      6.6124500000    5.7344300000    9.1744300000      0.0001990000    0.1788030000    0.0003580000
Se      6.6124100000    5.7343900000    5.8392200000     -0.0010120000   -0.1790270000   -0.0006740000
Se      4.9524600000    8.6097100000    5.8392700000      0.1404610000    0.0605770000    0.0044360000
Se     -1.6876700000    8.6097300000    5.8392200000     -0.1419170000    0.1174470000    0.0001610000
Se     -1.6876200000    8.6097400000    9.1744300000      0.1422550000   -0.1173990000    0.0006080000
Se      4.9522100000    2.8591600000    5.8392300000      0.1482460000    0.0648510000    0.0008110000
Se      4.9522600000    2.8591900000    9.1744600000     -0.1472740000   -0.0638970000   -0.0009540000
Se      3.2921300000    5.7343900000    9.1744700000      0.1412280000   -0.1191030000   -0.0013330000
Se      3.2920800000    5.7343800000    5.8391800000     -0.1405360000    0.1193420000   -0.0023190000
Se     -0.0275400000    5.7345100000    5.8392700000      0.1410980000    0.0606160000    0.0052650000
Se     -0.0274900000    5.7345400000    9.1744200000     -0.1401580000   -0.0599000000    0.0023720000
Se      6.6122000000   11.4846900000    9.1744700000     -0.0012500000    0.1789460000   -0.0014590000
Se      1.6324100000    2.8591900000    5.8392200000     -0.0004930000   -0.1788820000   -0.0004330000
Se      1.6324500000    2.8592200000    9.1744300000      0.0005230000    0.1787980000    0.0001740000
Se      6.6121600000   11.4846600000    5.8391800000      0.0005660000   -0.1795010000   -0.0028980000
Se      8.2720800000    8.6095900000    5.8391800000     -0.1417350000    0.1191270000   -0.0018460000
Se      8.2721300000    8.6096000000    9.1744700000      0.1402530000   -0.1197070000   -0.0018030000
Se      4.9522600000   14.3600100000    9.1744600000     -0.1478780000   -0.0642800000   -0.0012670000
Se      4.9522100000   14.3599800000    5.8392300000      0.1477170000    0.0642270000    0.0009940000
