CRYSTAL
PRIMVEC
   9.9600000000000009   5.7504086809999997   0.0000000000000000
  -4.9800000000000004   8.6256130219999996   0.0000000000000000
   0.0000000000000000   0.0000000000000000  15.0000000000000000
PRIMCOORD
 36   1
Mo      4.9584400000   12.4467500000    7.5068200000      0.0473860000    0.1200250000    0.0000100000
Mo      3.2983400000    9.5715300000    7.5068200000     -0.1236450000    0.0078880000    0.0000160000
Mo      8.2784200000    6.6963700000    7.5068200000     -0.1276270000    0.0048960000    0.0001260000
Mo      6.6184700000    9.5715800000    7.5068200000      0.0785360000   -0.1261790000   -0.0001160000
Mo     -1.6816600000    6.6963300000    7.5068200000     -0.1240970000    0.0081070000    0.0000600000
Mo     -0.0216400000    3.8210900000    7.5068200000      0.0451090000    0.1199770000    0.0000470000
Mo      1.6383900000    0.9459200000    7.5068200000      0.0807980000   -0.1273400000    0.0000000000
Mo      4.9583600000    6.6962900000    7.5068200000      0.0454040000    0.1203300000   -0.0000330000
Mo      6.6183900000    3.8211300000    7.5068200000      0.0806930000   -0.1270240000   -0.0000240000
Mo      3.2984200000    3.8211700000    7.5068200000     -0.1275260000    0.0046690000    0.0000220000
Mo      1.6384700000    6.6963800000    7.5068200000      0.0785760000   -0.1260800000    0.0000260000
Mo     -0.0215600000    9.5715500000    7.5068200000      0.0469270000    0.1199800000   -0.0000280000
Se      4.9525100000    8.6097400000    9.1744200000     -0.0865990000    0.1685080000    0.0020580000
Se      3.2923300000   11.4849300000    5.8392200000      0.1766550000   -0.0162820000   -0.0173040000
Se      3.2923800000   11.4849500000    9.1744300000      0.1762080000   -0.0152580000    0.0161200000
Se      1.6322000000    8.6094900000    9.1744700000     -0.0866530000   -0.1493420000   -0.0172390000
Se      1.6321600000    8.6094500000    5.8391800000     -0.0867990000   -0.1504870000    0.0179300000
Se      6.6124500000    5.7344300000    9.1744300000     -0.0895330000   -0.1515220000   -0.0160450000
Se      6.6124100000    5.7343900000    5.8392200000     -0.0895200000   -0.1524280000    0.0168210000
Se      4.9524600000    8.6097100000    5.8392700000     -0.0867470000    0.1675520000   -0.0017800000
Se     -1.6876700000    8.6097300000    5.8392200000      0.1764460000   -0.0163660000   -0.0176420000
Se     -1.6876200000    8.6097400000    9.1744300000      0.1760220000   -0.0153570000    0.0165750000
Se      4.9522100000    2.8591600000    5.8392300000     -0.0865140000    0.1667920000   -0.0001570000
Se      4.9522600000    2.8591900000    9.1744600000     -0.0864860000    0.1676560000    0.0003670000
Se      3.2921300000    5.7343900000    9.1744700000      0.1731820000   -0.0165370000    0.0145180000
Se      3.2920800000    5.7343800000    5.8391800000      0.1735240000   -0.0176440000   -0.0154630000
Se     -0.0275400000    5.7345100000    5.8392700000     -0.0870370000    0.1675710000   -0.0013400000
Se     -0.0274900000    5.7345400000    9.1744200000     -0.0871030000    0.1685330000    0.0016380000
Se      6.6122000000   11.4846900000    9.1744700000     -0.0867270000   -0.1498290000   -0.0168460000
Se      1.6324100000    2.8591900000    5.8392200000     -0.0897460000   -0.1528230000    0.0169280000
Se      1.6324500000    2.8592200000    9.1744300000     -0.0895770000   -0.1518750000   -0.0160920000
Se      6.6121600000   11.4846600000    5.8391800000     -0.0865800000   -0.1505010000    0.0176250000
Se      8.2720800000    8.6095900000    5.8391800000      0.1734590000   -0.0177660000   -0.0156670000
Se      8.2721300000    8.6096000000    9.1744700000      0.1727710000   -0.0164600000    0.0146630000
Se      4.9522600000   14.3600100000    9.1744600000     -0.0866200000    0.1676890000    0.0004390000
Se      4.9522100000   14.3599800000    5.8392300000     -0.0866470000    0.1669430000   -0.0001160000
