CRYSTAL
PRIMVEC
   9.9600000000000009   5.7504086809999997   0.0000000000000000
  -4.9800000000000004   8.6256130219999996   0.0000000000000000
   0.0000000000000000   0.0000000000000000  15.0000000000000000
PRIMCOORD
 36   1
Mo      4.9584400000   12.4467500000    7.5068200000      0.0000010000    0.0001770000    0.0277370000
Mo      3.2983400000    9.5715300000    7.5068200000     -0.0000530000   -0.0002930000   -0.0071890000
Mo      8.2784200000    6.6963700000    7.5068200000      0.0000050000    0.0003010000   -0.0311050000
Mo      6.6184700000    9.5715800000    7.5068200000      0.0002170000   -0.0003670000    0.0034910000
Mo     -1.6816600000    6.6963300000    7.5068200000      0.0001090000    0.0001680000    0.0072740000
Mo     -0.0216400000    3.8210900000    7.5068200000     -0.0003890000   -0.0002580000   -0.0071950000
Mo      1.6383900000    0.9459200000    7.5068200000      0.0001220000   -0.0001010000    0.0000450000
Mo      4.9583600000    6.6962900000    7.5068200000      0.0001860000    0.0002810000    0.0071670000
Mo      6.6183900000    3.8211300000    7.5068200000     -0.0002630000    0.0000280000   -0.0001200000
Mo      3.2984200000    3.8211700000    7.5068200000      0.0001700000   -0.0003100000    0.0310770000
Mo      1.6384700000    6.6963800000    7.5068200000     -0.0001820000    0.0004460000   -0.0034490000
Mo     -0.0215600000    9.5715500000    7.5068200000      0.0000720000   -0.0000750000   -0.0277570000
Se      4.9525100000    8.6097400000    9.1744200000      0.1208130000   -0.2271560000    0.0030440000
Se      3.2923300000   11.4849300000    5.8392200000      0.0474570000   -0.0850860000    0.0108370000
Se      3.2923800000   11.4849500000    9.1744300000     -0.0479280000    0.0851090000    0.0104430000
Se      1.6322000000    8.6094900000    9.1744700000      0.1969320000    0.2245060000   -0.0592080000
Se      1.6321600000    8.6094500000    5.8391800000     -0.1975280000   -0.2242150000   -0.0595210000
Se      6.6124500000    5.7344300000    9.1744300000     -0.0212690000    0.0546860000   -0.0137920000
Se      6.6124100000    5.7343900000    5.8392200000      0.0215190000   -0.0543040000   -0.0136060000
Se      4.9524600000    8.6097100000    5.8392700000     -0.1204480000    0.2268770000    0.0027000000
Se     -1.6876700000    8.6097300000    5.8392200000     -0.0465640000    0.0854560000   -0.0100470000
Se     -1.6876200000    8.6097400000    9.1744300000      0.0469000000   -0.0854280000   -0.0099030000
Se      4.9522100000    2.8591600000    5.8392300000      0.0355150000   -0.0016390000    0.0052480000
Se      4.9522600000    2.8591900000    9.1744600000     -0.0350230000    0.0008060000    0.0055390000
Se      3.2921300000    5.7343900000    9.1744700000     -0.2653540000   -0.0461410000    0.0532630000
Se      3.2920800000    5.7343800000    5.8391800000      0.2652850000    0.0466470000    0.0535230000
Se     -0.0275400000    5.7345100000    5.8392700000      0.1199220000   -0.2271160000   -0.0030660000
Se     -0.0274900000    5.7345400000    9.1744200000     -0.1200380000    0.2273450000   -0.0033820000
Se      6.6122000000   11.4846900000    9.1744700000     -0.1970760000   -0.2247700000    0.0588590000
Se      1.6324100000    2.8591900000    5.8392200000     -0.0221500000    0.0540520000    0.0135730000
Se      1.6324500000    2.8592200000    9.1744300000      0.0216500000   -0.0545070000    0.0135300000
Se      6.6121600000   11.4846600000    5.8391800000      0.1975740000    0.2245630000    0.0589870000
Se      8.2720800000    8.6095900000    5.8391800000     -0.2665700000   -0.0470850000   -0.0526830000
Se      8.2721300000    8.6096000000    9.1744700000      0.2665500000    0.0466600000   -0.0522260000
Se      4.9522600000   14.3600100000    9.1744600000      0.0347240000   -0.0012600000   -0.0061700000
Se      4.9522100000   14.3599800000    5.8392300000     -0.0349120000    0.0020000000   -0.0059170000
