CRYSTAL
PRIMVEC
   9.9600000000000009   5.7504086809999997   0.0000000000000000
  -4.9800000000000004   8.6256130219999996   0.0000000000000000
   0.0000000000000000   0.0000000000000000  15.0000000000000000
PRIMCOORD
 36   1
Mo      4.9584400000   12.4467500000    7.5068200000     -0.2452260000    0.2698280000   -0.0010230000
Mo      3.2983400000    9.5715300000    7.5068200000     -0.0696210000    0.0686450000    0.0010730000
Mo      8.2784200000    6.6963700000    7.5068200000      0.0709020000   -0.3530410000   -0.0012990000
Mo      6.6184700000    9.5715800000    7.5068200000      0.1634420000    0.0801960000    0.0016710000
Mo     -1.6816600000    6.6963300000    7.5068200000      0.0681290000   -0.0727700000   -0.0007300000
Mo     -0.0216400000    3.8210900000    7.5068200000     -0.0353500000    0.1581650000    0.0003300000
Mo      1.6383900000    0.9459200000    7.5068200000     -0.0391350000   -0.0820240000    0.0006660000
Mo      4.9583600000    6.6962900000    7.5068200000      0.0320310000   -0.1564590000   -0.0010170000
Mo      6.6183900000    3.8211300000    7.5068200000      0.0384400000    0.0828060000    0.0003120000
Mo      3.2984200000    3.8211700000    7.5068200000     -0.0708500000    0.3524510000    0.0013340000
Mo      1.6384700000    6.6963800000    7.5068200000     -0.1587480000   -0.0778560000   -0.0016800000
Mo     -0.0215600000    9.5715500000    7.5068200000      0.2425190000   -0.2663230000    0.0001770000
Se      4.9525100000    8.6097400000    9.1744200000     -0.0352780000   -0.0017270000    0.1197420000
Se      3.2923300000   11.4849300000    5.8392200000      0.0447750000   -0.0447430000    0.0387380000
Se      3.2923800000   11.4849500000    9.1744300000      0.0445310000   -0.0453480000   -0.0391220000
Se      1.6322000000    8.6094900000    9.1744700000     -0.0484100000    0.0687730000   -0.0775290000
Se      1.6321600000    8.6094500000    5.8391800000     -0.0486080000    0.0678450000    0.0777000000
Se      6.6124500000    5.7344300000    9.1744300000     -0.0075700000    0.0504210000   -0.0835910000
Se      6.6124100000    5.7343900000    5.8392200000     -0.0072440000    0.0510720000    0.0840680000
Se      4.9524600000    8.6097100000    5.8392700000     -0.0357640000   -0.0027870000   -0.1198470000
Se     -1.6876700000    8.6097300000    5.8392200000     -0.0438540000    0.0458020000   -0.0401210000
Se     -1.6876200000    8.6097400000    9.1744300000     -0.0441620000    0.0462960000    0.0402960000
Se      4.9522100000    2.8591600000    5.8392300000      0.0051850000    0.0026230000   -0.1542680000
Se      4.9522600000    2.8591900000    9.1744600000      0.0053550000    0.0029570000    0.1538760000
Se      3.2921300000    5.7343900000    9.1744700000      0.0401120000   -0.0733750000   -0.0819330000
Se      3.2920800000    5.7343800000    5.8391800000      0.0401900000   -0.0723200000    0.0821240000
Se     -0.0275400000    5.7345100000    5.8392700000      0.0345040000    0.0018000000    0.1190900000
Se     -0.0274900000    5.7345400000    9.1744200000      0.0339180000    0.0010550000   -0.1188650000
Se      6.6122000000   11.4846900000    9.1744700000      0.0502070000   -0.0696560000    0.0772730000
Se      1.6324100000    2.8591900000    5.8392200000      0.0085600000   -0.0514380000   -0.0848920000
Se      1.6324500000    2.8592200000    9.1744300000      0.0091200000   -0.0513080000    0.0842190000
Se      6.6121600000   11.4846600000    5.8391800000      0.0497390000   -0.0686390000   -0.0771560000
Se      8.2720800000    8.6095900000    5.8391800000     -0.0402670000    0.0727780000   -0.0807920000
Se      8.2721300000    8.6096000000    9.1744700000     -0.0406160000    0.0737170000    0.0809210000
Se      4.9522600000   14.3600100000    9.1744600000     -0.0052200000   -0.0038000000   -0.1550780000
Se      4.9522100000   14.3599800000    5.8392300000     -0.0052710000   -0.0039870000    0.1553490000
