CRYSTAL
PRIMVEC
   9.9600000000000009   5.7504086809999997   0.0000000000000000
  -4.9800000000000004   8.6256130219999996   0.0000000000000000
   0.0000000000000000   0.0000000000000000  15.0000000000000000
PRIMCOORD
 36   1
Mo      4.9584400000   12.4467500000    7.5068200000     -0.1647710000    0.1785540000   -0.0003650000
Mo      3.2983400000    9.5715300000    7.5068200000     -0.2053540000   -0.0209470000    0.0003620000
Mo      8.2784200000    6.6963700000    7.5068200000      0.0130490000   -0.0022180000    0.0006480000
Mo      6.6184700000    9.5715800000    7.5068200000      0.1493390000   -0.1753900000    0.0001350000
Mo     -1.6816600000    6.6963300000    7.5068200000      0.2056830000    0.0204200000   -0.0006000000
Mo     -0.0216400000    3.8210900000    7.5068200000     -0.1118580000    0.0461610000    0.0002550000
Mo      1.6383900000    0.9459200000    7.5068200000     -0.0920450000   -0.0657980000   -0.0000170000
Mo      4.9583600000    6.6962900000    7.5068200000      0.1120600000   -0.0455440000   -0.0007370000
Mo      6.6183900000    3.8211300000    7.5068200000      0.0931520000    0.0663310000    0.0002110000
Mo      3.2984200000    3.8211700000    7.5068200000     -0.0130890000    0.0011550000   -0.0005650000
Mo      1.6384700000    6.6963800000    7.5068200000     -0.1491780000    0.1752470000    0.0003340000
Mo     -0.0215600000    9.5715500000    7.5068200000      0.1632730000   -0.1779630000    0.0002860000
Se      4.9525100000    8.6097400000    9.1744200000     -0.0216550000   -0.0067460000   -0.1156760000
Se      3.2923300000   11.4849300000    5.8392200000     -0.0436530000    0.0220190000   -0.0272700000
Se      3.2923800000   11.4849500000    9.1744300000     -0.0433150000    0.0224990000    0.0276000000
Se      1.6322000000    8.6094900000    9.1744700000     -0.0154990000   -0.0213330000    0.2480720000
Se      1.6321600000    8.6094500000    5.8391800000     -0.0150920000   -0.0199280000   -0.2486520000
Se      6.6124500000    5.7344300000    9.1744300000      0.0633680000   -0.0165600000    0.0886090000
Se      6.6124100000    5.7343900000    5.8392200000      0.0653910000   -0.0166820000   -0.0884890000
Se      4.9524600000    8.6097100000    5.8392700000     -0.0222340000   -0.0055270000    0.1155280000
Se     -1.6876700000    8.6097300000    5.8392200000      0.0432540000   -0.0228110000    0.0266090000
Se     -1.6876200000    8.6097400000    9.1744300000      0.0431530000   -0.0237790000   -0.0270820000
Se      4.9522100000    2.8591600000    5.8392300000      0.0874680000   -0.0980440000    0.1237510000
Se      4.9522600000    2.8591900000    9.1744600000      0.0880970000   -0.0978650000   -0.1234000000
Se      3.2921300000    5.7343900000    9.1744700000     -0.0699260000    0.1166040000   -0.1250490000
Se      3.2920800000    5.7343800000    5.8391800000     -0.0715080000    0.1180460000    0.1254610000
Se     -0.0275400000    5.7345100000    5.8392700000      0.0238290000    0.0063350000   -0.1160500000
Se     -0.0274900000    5.7345400000    9.1744200000      0.0217630000    0.0066050000    0.1159270000
Se      6.6122000000   11.4846900000    9.1744700000      0.0138820000    0.0221510000   -0.2487670000
Se      1.6324100000    2.8591900000    5.8392200000     -0.0659960000    0.0166920000    0.0877900000
Se      1.6324500000    2.8592200000    9.1744300000     -0.0643630000    0.0171930000   -0.0881620000
Se      6.6121600000   11.4846600000    5.8391800000      0.0142150000    0.0198850000    0.2496900000
Se      8.2720800000    8.6095900000    5.8391800000      0.0718980000   -0.1189040000   -0.1247380000
Se      8.2721300000    8.6096000000    9.1744700000      0.0702330000   -0.1175010000    0.1244790000
Se      4.9522600000   14.3600100000    9.1744600000     -0.0867930000    0.0986130000    0.1234200000
Se      4.9522100000   14.3599800000    5.8392300000     -0.0862910000    0.0990210000   -0.1235430000
