CRYSTAL
PRIMVEC
   9.9600000000000009   5.7504086809999997   0.0000000000000000
  -4.9800000000000004   8.6256130219999996   0.0000000000000000
   0.0000000000000000   0.0000000000000000  15.0000000000000000
PRIMCOORD
 36   1
Mo      4.9584400000   12.4467500000    7.5068200000      0.0897970000   -0.1667190000    0.0011150000
Mo      3.2983400000    9.5715300000    7.5068200000      0.1084680000   -0.1777180000   -0.0008420000
Mo      8.2784200000    6.6963700000    7.5068200000     -0.1076310000    0.1802310000    0.0010230000
Mo      6.6184700000    9.5715800000    7.5068200000      0.0176450000   -0.0128780000    0.0013590000
Mo     -1.6816600000    6.6963300000    7.5068200000      0.1070500000   -0.1787220000   -0.0006820000
Mo     -0.0216400000    3.8210900000    7.5068200000     -0.0888450000    0.1654390000   -0.0014360000
Mo      1.6383900000    0.9459200000    7.5068200000     -0.0183880000    0.0122620000   -0.0012680000
Mo      4.9583600000    6.6962900000    7.5068200000     -0.0867200000    0.1667460000   -0.0012150000
Mo      6.6183900000    3.8211300000    7.5068200000     -0.0161300000    0.0133300000   -0.0013290000
Mo      3.2984200000    3.8211700000    7.5068200000     -0.1091800000    0.1792490000    0.0009760000
Mo      1.6384700000    6.6963800000    7.5068200000      0.0159200000   -0.0134770000    0.0010240000
Mo     -0.0215600000    9.5715500000    7.5068200000      0.0881910000   -0.1677710000    0.0012540000
Se      4.9525100000    8.6097400000    9.1744200000      0.1055880000    0.0435180000    0.1159690000
Se      3.2923300000   11.4849300000    5.8392200000      0.0145430000   -0.1547270000    0.0648400000
Se      3.2923800000   11.4849500000    9.1744300000      0.0129940000   -0.1552950000   -0.0663090000
Se      1.6322000000    8.6094900000    9.1744700000      0.1213260000   -0.1105780000    0.0492130000
Se      1.6321600000    8.6094500000    5.8391800000      0.1199690000   -0.1110180000   -0.0475490000
Se      6.6124500000    5.7344300000    9.1744300000     -0.1188930000    0.1107180000   -0.0493870000
Se      6.6124100000    5.7343900000    5.8392200000     -0.1175470000    0.1115580000    0.0476550000
Se      4.9524600000    8.6097100000    5.8392700000      0.1078080000    0.0451200000   -0.1174480000
Se     -1.6876700000    8.6097300000    5.8392200000      0.0123010000   -0.1559730000    0.0653090000
Se     -1.6876200000    8.6097400000    9.1744300000      0.0107520000   -0.1563780000   -0.0664870000
Se      4.9522100000    2.8591600000    5.8392300000     -0.1094100000   -0.0459060000    0.1188540000
Se      4.9522600000    2.8591900000    9.1744600000     -0.1069160000   -0.0443440000   -0.1171210000
Se      3.2921300000    5.7343900000    9.1744700000     -0.0106600000    0.1579040000    0.0658140000
Se      3.2920800000    5.7343800000    5.8391800000     -0.0121680000    0.1569780000   -0.0645220000
Se     -0.0275400000    5.7345100000    5.8392700000      0.1057730000    0.0440240000   -0.1175540000
Se     -0.0274900000    5.7345400000    9.1744200000      0.1040540000    0.0422850000    0.1157420000
Se      6.6122000000   11.4846900000    9.1744700000      0.1215860000   -0.1104290000    0.0502010000
Se      1.6324100000    2.8591900000    5.8392200000     -0.1196600000    0.1102560000    0.0473890000
Se      1.6324500000    2.8592200000    9.1744300000     -0.1209500000    0.1096150000   -0.0493200000
Se      6.6121600000   11.4846600000    5.8391800000      0.1204250000   -0.1112590000   -0.0482930000
Se      8.2720800000    8.6095900000    5.8391800000     -0.0126140000    0.1566110000   -0.0661090000
Se      8.2721300000    8.6096000000    9.1744700000     -0.0107470000    0.1575290000    0.0674440000
Se      4.9522600000   14.3600100000    9.1744600000     -0.1073370000   -0.0444300000   -0.1158070000
Se      4.9522100000   14.3599800000    5.8392300000     -0.1096430000   -0.0458110000    0.1174600000
