CRYSTAL
PRIMVEC
   9.9600000000000009   5.7504086809999997   0.0000000000000000
  -4.9800000000000004   8.6256130219999996   0.0000000000000000
   0.0000000000000000   0.0000000000000000  15.0000000000000000
PRIMCOORD
 36   1
Mo      4.9584400000   12.4467500000    7.5068200000      0.1534560000    0.0883410000    0.0002920000
Mo      3.2983400000    9.5715300000    7.5068200000     -0.1535680000   -0.0892950000   -0.0002240000
Mo      8.2784200000    6.6963700000    7.5068200000      0.1520990000    0.0892130000    0.0004270000
Mo      6.6184700000    9.5715800000    7.5068200000      0.1540240000    0.0877700000    0.0006410000
Mo     -1.6816600000    6.6963300000    7.5068200000     -0.1527280000   -0.0897090000   -0.0002800000
Mo     -0.0216400000    3.8210900000    7.5068200000     -0.1539360000   -0.0867740000   -0.0003510000
Mo      1.6383900000    0.9459200000    7.5068200000     -0.1530070000   -0.0888800000   -0.0006800000
Mo      4.9583600000    6.6962900000    7.5068200000     -0.1534920000   -0.0871520000   -0.0003980000
Mo      6.6183900000    3.8211300000    7.5068200000     -0.1522850000   -0.0888930000   -0.0007540000
Mo      3.2984200000    3.8211700000    7.5068200000      0.1520160000    0.0888860000    0.0003420000
Mo      1.6384700000    6.6963800000    7.5068200000      0.1530600000    0.0881300000    0.0007600000
Mo     -0.0215600000    9.5715500000    7.5068200000      0.1538730000    0.0880850000    0.0002990000
Se      4.9525100000    8.6097400000    9.1744200000      0.0053710000    0.0038660000   -0.1612030000
Se      3.2923300000   11.4849300000    5.8392200000      0.0060640000    0.0019000000    0.1607390000
Se      3.2923800000   11.4849500000    9.1744300000      0.0062060000    0.0014180000   -0.1616790000
Se      1.6322000000    8.6094900000    9.1744700000     -0.0045080000   -0.0032580000    0.1623620000
Se      1.6321600000    8.6094500000    5.8391800000     -0.0045150000   -0.0039810000   -0.1611050000
Se      6.6124500000    5.7344300000    9.1744300000      0.0036610000    0.0025300000   -0.1619810000
Se      6.6124100000    5.7343900000    5.8392200000      0.0042820000    0.0030860000    0.1610210000
Se      4.9524600000    8.6097100000    5.8392700000      0.0056320000    0.0044330000    0.1610170000
Se     -1.6876700000    8.6097300000    5.8392200000      0.0062980000    0.0018850000    0.1611790000
Se     -1.6876200000    8.6097400000    9.1744300000      0.0056740000    0.0011940000   -0.1622150000
Se      4.9522100000    2.8591600000    5.8392300000     -0.0053850000   -0.0022320000   -0.1605970000
Se      4.9522600000    2.8591900000    9.1744600000     -0.0050300000   -0.0017810000    0.1606400000
Se      3.2921300000    5.7343900000    9.1744700000     -0.0040090000   -0.0017050000    0.1616640000
Se      3.2920800000    5.7343800000    5.8391800000     -0.0045890000   -0.0025070000   -0.1607110000
Se     -0.0275400000    5.7345100000    5.8392700000      0.0054360000    0.0042990000    0.1601890000
Se     -0.0274900000    5.7345400000    9.1744200000      0.0055620000    0.0037350000   -0.1602400000
Se      6.6122000000   11.4846900000    9.1744700000     -0.0039080000   -0.0034280000    0.1615370000
Se      1.6324100000    2.8591900000    5.8392200000      0.0040610000    0.0032740000    0.1611520000
Se      1.6324500000    2.8592200000    9.1744300000      0.0033870000    0.0026780000   -0.1621440000
Se      6.6121600000   11.4846600000    5.8391800000     -0.0046640000   -0.0039410000   -0.1607540000
Se      8.2720800000    8.6095900000    5.8391800000     -0.0042610000   -0.0027800000   -0.1614620000
Se      8.2721300000    8.6096000000    9.1744700000     -0.0039490000   -0.0017030000    0.1623950000
Se      4.9522600000   14.3600100000    9.1744600000     -0.0053260000   -0.0016280000    0.1609930000
Se      4.9522100000   14.3599800000    5.8392300000     -0.0055520000   -0.0020160000   -0.1608080000
