CRYSTAL
PRIMVEC
   9.9600000000000009   5.7504086809999997   0.0000000000000000
  -4.9800000000000004   8.6256130219999996   0.0000000000000000
   0.0000000000000000   0.0000000000000000  15.0000000000000000
PRIMCOORD
 36   1
Mo      4.9584400000   12.4467500000    7.5068200000      0.0000180000   -0.0002130000   -0.0349120000
Mo      3.2983400000    9.5715300000    7.5068200000     -0.0002450000    0.0001060000    0.0234300000
Mo      8.2784200000    6.6963700000    7.5068200000     -0.0002980000    0.0000110000   -0.0347740000
Mo      6.6184700000    9.5715800000    7.5068200000     -0.0001650000    0.0000130000   -0.0340650000
Mo     -1.6816600000    6.6963300000    7.5068200000      0.0000390000   -0.0000660000   -0.0238400000
Mo     -0.0216400000    3.8210900000    7.5068200000      0.0001930000    0.0001820000   -0.0236420000
Mo      1.6383900000    0.9459200000    7.5068200000      0.0000760000    0.0000860000   -0.0223110000
Mo      4.9583600000    6.6962900000    7.5068200000     -0.0001230000   -0.0002430000    0.0236000000
Mo      6.6183900000    3.8211300000    7.5068200000     -0.0000590000   -0.0000190000    0.0224360000
Mo      3.2984200000    3.8211700000    7.5068200000      0.0003290000   -0.0000030000    0.0351210000
Mo      1.6384700000    6.6963800000    7.5068200000      0.0000450000   -0.0000170000    0.0340360000
Mo     -0.0215600000    9.5715500000    7.5068200000      0.0000650000    0.0001640000    0.0349720000
Se      4.9525100000    8.6097400000    9.1744200000     -0.2131000000   -0.1247710000    0.0511960000
Se      3.2923300000   11.4849300000    5.8392200000      0.2139800000    0.1219960000    0.0418500000
Se      3.2923800000   11.4849500000    9.1744300000     -0.2143670000   -0.1217270000    0.0424500000
Se      1.6322000000    8.6094900000    9.1744700000      0.0053960000    0.0073070000    0.1387080000
Se      1.6321600000    8.6094500000    5.8391800000     -0.0064730000   -0.0075970000    0.1394900000
Se      6.6124500000    5.7344300000    9.1744300000     -0.2130230000   -0.1227730000    0.0443440000
Se      6.6124100000    5.7343900000    5.8392200000      0.2131050000    0.1225960000    0.0437380000
Se      4.9524600000    8.6097100000    5.8392700000      0.2114370000    0.1237140000    0.0497820000
Se     -1.6876700000    8.6097300000    5.8392200000     -0.2115270000   -0.1242690000   -0.0410850000
Se     -1.6876200000    8.6097400000    9.1744300000      0.2130410000    0.1237120000   -0.0420660000
Se      4.9522100000    2.8591600000    5.8392300000     -0.0013040000   -0.0016630000    0.1420590000
Se      4.9522600000    2.8591900000    9.1744600000      0.0008210000    0.0012090000    0.1421580000
Se      3.2921300000    5.7343900000    9.1744700000      0.0094830000    0.0009210000    0.1409480000
Se      3.2920800000    5.7343800000    5.8391800000     -0.0100800000   -0.0013840000    0.1412020000
Se     -0.0275400000    5.7345100000    5.8392700000     -0.2129710000   -0.1217390000   -0.0516020000
Se     -0.0274900000    5.7345400000    9.1744200000      0.2133770000    0.1223300000   -0.0528530000
Se      6.6122000000   11.4846900000    9.1744700000     -0.0055610000   -0.0059960000   -0.1415670000
Se      1.6324100000    2.8591900000    5.8392200000     -0.2127060000   -0.1219120000   -0.0417050000
Se      1.6324500000    2.8592200000    9.1744300000      0.2130890000    0.1231890000   -0.0422510000
Se      6.6121600000   11.4846600000    5.8391800000      0.0064030000    0.0074120000   -0.1423120000
Se      8.2720800000    8.6095900000    5.8391800000      0.0093090000    0.0034440000   -0.1398520000
Se      8.2721300000    8.6096000000    9.1744700000     -0.0077620000   -0.0037180000   -0.1392300000
Se      4.9522600000   14.3600100000    9.1744600000     -0.0020690000    0.0003610000   -0.1418130000
Se      4.9522100000   14.3599800000    5.8392300000      0.0014220000   -0.0006440000   -0.1416380000
