CRYSTAL
PRIMVEC
   9.9600000000000009   5.7504086809999997   0.0000000000000000
  -4.9800000000000004   8.6256130219999996   0.0000000000000000
   0.0000000000000000   0.0000000000000000  15.0000000000000000
PRIMCOORD
 36   1
Mo      4.9584400000   12.4467500000    7.5068200000      0.0002220000    0.0005100000    0.1912960000
Mo      3.2983400000    9.5715300000    7.5068200000     -0.0017690000   -0.0012330000   -0.1824480000
Mo      8.2784200000    6.6963700000    7.5068200000      0.0005050000    0.0003450000   -0.2384470000
Mo      6.6184700000    9.5715800000    7.5068200000     -0.0010120000    0.0004440000    0.0476190000
Mo     -1.6816600000    6.6963300000    7.5068200000      0.0017680000    0.0011400000    0.1824190000
Mo     -0.0216400000    3.8210900000    7.5068200000     -0.0019920000   -0.0001980000   -0.1402160000
Mo      1.6383900000    0.9459200000    7.5068200000      0.0001710000   -0.0002900000   -0.0428380000
Mo      4.9583600000    6.6962900000    7.5068200000      0.0016180000   -0.0002850000    0.1403540000
Mo      6.6183900000    3.8211300000    7.5068200000     -0.0000890000    0.0008700000    0.0426140000
Mo      3.2984200000    3.8211700000    7.5068200000     -0.0008560000   -0.0003990000    0.2386230000
Mo      1.6384700000    6.6963800000    7.5068200000      0.0009800000   -0.0007850000   -0.0476510000
Mo     -0.0215600000    9.5715500000    7.5068200000      0.0003370000   -0.0001210000   -0.1913060000
Se      4.9525100000    8.6097400000    9.1744200000     -0.0911530000    0.0974760000    0.0020750000
Se      3.2923300000   11.4849300000    5.8392200000      0.0500750000    0.1347380000    0.0239890000
Se      3.2923800000   11.4849500000    9.1744300000     -0.0507470000   -0.1351020000    0.0227400000
Se      1.6322000000    8.6094900000    9.1744700000     -0.0237290000    0.0471400000   -0.2101640000
Se      1.6321600000    8.6094500000    5.8391800000      0.0219830000   -0.0499990000   -0.2121030000
Se      6.6124500000    5.7344300000    9.1744300000      0.1431020000    0.0349460000   -0.0244790000
Se      6.6124100000    5.7343900000    5.8392200000     -0.1405530000   -0.0345620000   -0.0250460000
Se      4.9524600000    8.6097100000    5.8392700000      0.0892270000   -0.0978460000    0.0020070000
Se     -1.6876700000    8.6097300000    5.8392200000     -0.0496760000   -0.1344580000   -0.0238490000
Se     -1.6876200000    8.6097400000    9.1744300000      0.0510330000    0.1355120000   -0.0232300000
Se      4.9522100000    2.8591600000    5.8392300000     -0.0770240000    0.1402600000    0.0454830000
Se      4.9522600000    2.8591900000    9.1744600000      0.0764020000   -0.1391670000    0.0447940000
Se      3.2921300000    5.7343900000    9.1744700000     -0.0527260000    0.0911860000    0.1655280000
Se      3.2920800000    5.7343800000    5.8391800000      0.0557820000   -0.0922290000    0.1664240000
Se     -0.0275400000    5.7345100000    5.8392700000     -0.0893950000    0.0973470000   -0.0019070000
Se     -0.0274900000    5.7345400000    9.1744200000      0.0910730000   -0.0977970000   -0.0020350000
Se      6.6122000000   11.4846900000    9.1744700000      0.0239570000   -0.0472710000    0.2102800000
Se      1.6324100000    2.8591900000    5.8392200000      0.1405720000    0.0349290000    0.0248270000
Se      1.6324500000    2.8592200000    9.1744300000     -0.1435320000   -0.0349730000    0.0246220000
Se      6.6121600000   11.4846600000    5.8391800000     -0.0219340000    0.0498440000    0.2120490000
Se      8.2720800000    8.6095900000    5.8391800000     -0.0556760000    0.0917520000   -0.1665100000
Se      8.2721300000    8.6096000000    9.1744700000      0.0522000000   -0.0915790000   -0.1652310000
Se      4.9522600000   14.3600100000    9.1744600000     -0.0762580000    0.1396220000   -0.0449060000
Se      4.9522100000   14.3599800000    5.8392300000      0.0769720000   -0.1397660000   -0.0453870000
