CRYSTAL
PRIMVEC
   9.9600000000000009   5.7504086809999997   0.0000000000000000
  -4.9800000000000004   8.6256130219999996   0.0000000000000000
   0.0000000000000000   0.0000000000000000  15.0000000000000000
PRIMCOORD
 36   1
Mo      4.9584400000   12.4467500000    7.5068200000      0.0462880000    0.0276260000   -0.0002470000
Mo      3.2983400000    9.5715300000    7.5068200000     -0.0461390000   -0.0271580000   -0.0001230000
Mo      8.2784200000    6.6963700000    7.5068200000      0.0465590000    0.0266710000   -0.0001660000
Mo      6.6184700000    9.5715800000    7.5068200000      0.0454700000    0.0252460000    0.0000040000
Mo     -1.6816600000    6.6963300000    7.5068200000      0.0466600000    0.0268510000    0.0000600000
Mo     -0.0216400000    3.8210900000    7.5068200000      0.0464260000    0.0265840000    0.0000730000
Mo      1.6383900000    0.9459200000    7.5068200000      0.0451780000    0.0270760000    0.0002880000
Mo      4.9583600000    6.6962900000    7.5068200000     -0.0462700000   -0.0274330000   -0.0000730000
Mo      6.6183900000    3.8211300000    7.5068200000     -0.0459950000   -0.0259800000   -0.0003230000
Mo      3.2984200000    3.8211700000    7.5068200000     -0.0470370000   -0.0265030000    0.0002730000
Mo      1.6384700000    6.6963800000    7.5068200000     -0.0448040000   -0.0263830000    0.0000670000
Mo     -0.0215600000    9.5715500000    7.5068200000     -0.0463850000   -0.0265960000    0.0001950000
Se      4.9525100000    8.6097400000    9.1744200000     -0.0156120000   -0.0069800000   -0.2260060000
Se      3.2923300000   11.4849300000    5.8392200000     -0.0199780000   -0.0110230000    0.2285390000
Se      3.2923800000   11.4849500000    9.1744300000     -0.0211210000   -0.0103030000   -0.2286970000
Se      1.6322000000    8.6094900000    9.1744700000      0.1392120000    0.0863060000   -0.0403660000
Se      1.6321600000    8.6094500000    5.8391800000      0.1397330000    0.0865940000    0.0407380000
Se      6.6124500000    5.7344300000    9.1744300000     -0.0198130000   -0.0145150000   -0.2254080000
Se      6.6124100000    5.7343900000    5.8392200000     -0.0192970000   -0.0135870000    0.2253250000
Se      4.9524600000    8.6097100000    5.8392700000     -0.0141780000   -0.0065640000    0.2252220000
Se     -1.6876700000    8.6097300000    5.8392200000      0.0202490000    0.0090630000   -0.2258040000
Se     -1.6876200000    8.6097400000    9.1744300000      0.0213700000    0.0083380000    0.2257430000
Se      4.9522100000    2.8591600000    5.8392300000      0.1449220000    0.0821900000    0.0436660000
Se      4.9522600000    2.8591900000    9.1744600000      0.1446360000    0.0820510000   -0.0425280000
Se      3.2921300000    5.7343900000    9.1744700000      0.1435300000    0.0790890000   -0.0374930000
Se      3.2920800000    5.7343800000    5.8391800000      0.1439450000    0.0796480000    0.0377880000
Se     -0.0275400000    5.7345100000    5.8392700000      0.0124270000    0.0091860000   -0.2243970000
Se     -0.0274900000    5.7345400000    9.1744200000      0.0136150000    0.0095680000    0.2254950000
Se      6.6122000000   11.4846900000    9.1744700000     -0.1394180000   -0.0853390000    0.0366320000
Se      1.6324100000    2.8591900000    5.8392200000      0.0190970000    0.0117130000   -0.2288660000
Se      1.6324500000    2.8592200000    9.1744300000      0.0192080000    0.0127360000    0.2292770000
Se      6.6121600000   11.4846600000    5.8391800000     -0.1398460000   -0.0853290000   -0.0371000000
Se      8.2720800000    8.6095900000    5.8391800000     -0.1447730000   -0.0769420000   -0.0408140000
Se      8.2721300000    8.6096000000    9.1744700000     -0.1442100000   -0.0763900000    0.0404110000
Se      4.9522600000   14.3600100000    9.1744600000     -0.1417160000   -0.0845730000    0.0430010000
Se      4.9522100000   14.3599800000    5.8392300000     -0.1421730000   -0.0849940000   -0.0443880000
