CRYSTAL
PRIMVEC
   9.9600000000000009   5.7504086809999997   0.0000000000000000
  -4.9800000000000004   8.6256130219999996   0.0000000000000000
   0.0000000000000000   0.0000000000000000  15.0000000000000000
PRIMCOORD
 36   1
Mo      4.9584400000   12.4467500000    7.5068200000     -0.0000250000   -0.0000650000   -0.0067150000
Mo      3.2983400000    9.5715300000    7.5068200000      0.0002650000   -0.0002260000    0.0102320000
Mo      8.2784200000    6.6963700000    7.5068200000     -0.0002630000    0.0002540000   -0.0078320000
Mo      6.6184700000    9.5715800000    7.5068200000      0.0002520000   -0.0002040000    0.0142460000
Mo     -1.6816600000    6.6963300000    7.5068200000      0.0002790000   -0.0000580000    0.0100120000
Mo     -0.0216400000    3.8210900000    7.5068200000     -0.0002430000    0.0000820000    0.0085030000
Mo      1.6383900000    0.9459200000    7.5068200000      0.0000030000    0.0000130000   -0.0183850000
Mo      4.9583600000    6.6962900000    7.5068200000      0.0001590000    0.0002600000    0.0085260000
Mo      6.6183900000    3.8211300000    7.5068200000      0.0000280000    0.0001580000   -0.0185310000
Mo      3.2984200000    3.8211700000    7.5068200000     -0.0002600000   -0.0000110000   -0.0077860000
Mo      1.6384700000    6.6963800000    7.5068200000     -0.0001480000    0.0000840000    0.0142250000
Mo     -0.0215600000    9.5715500000    7.5068200000      0.0000010000   -0.0002930000   -0.0065430000
Se      4.9525100000    8.6097400000    9.1744200000      0.2428490000    0.1385100000    0.0293910000
Se      3.2923300000   11.4849300000    5.8392200000      0.1325610000    0.0249900000   -0.0130920000
Se      3.2923800000   11.4849500000    9.1744300000     -0.1322420000   -0.0265020000   -0.0129110000
Se      1.6322000000    8.6094900000    9.1744700000      0.1185550000    0.1063200000    0.0146420000
Se      1.6321600000    8.6094500000    5.8391800000     -0.1175940000   -0.1068020000    0.0156040000
Se      6.6124500000    5.7344300000    9.1744300000     -0.1120700000   -0.1107200000   -0.0148410000
Se      6.6124100000    5.7343900000    5.8392200000      0.1116060000    0.1117960000   -0.0160510000
Se      4.9524600000    8.6097100000    5.8392700000     -0.2426990000   -0.1381630000    0.0303920000
Se     -1.6876700000    8.6097300000    5.8392200000      0.1330790000    0.0266800000   -0.0133200000
Se     -1.6876200000    8.6097400000    9.1744300000     -0.1326250000   -0.0276630000   -0.0120400000
Se      4.9522100000    2.8591600000    5.8392300000      0.2484310000    0.1410350000   -0.0294210000
Se      4.9522600000    2.8591900000    9.1744600000     -0.2484850000   -0.1414740000   -0.0286700000
Se      3.2921300000    5.7343900000    9.1744700000      0.1309870000    0.0352860000    0.0119110000
Se      3.2920800000    5.7343800000    5.8391800000     -0.1316160000   -0.0341940000    0.0130440000
Se     -0.0275400000    5.7345100000    5.8392700000     -0.2447370000   -0.1382150000    0.0301400000
Se     -0.0274900000    5.7345400000    9.1744200000      0.2450560000    0.1378120000    0.0290800000
Se      6.6122000000   11.4846900000    9.1744700000      0.1196600000    0.1050440000    0.0146070000
Se      1.6324100000    2.8591900000    5.8392200000      0.1120080000    0.1122910000   -0.0154900000
Se      1.6324500000    2.8592200000    9.1744300000     -0.1132580000   -0.1110910000   -0.0152170000
Se      6.6121600000   11.4846600000    5.8391800000     -0.1189880000   -0.1062510000    0.0150850000
Se      8.2720800000    8.6095900000    5.8391800000     -0.1301780000   -0.0342080000    0.0127910000
Se      8.2721300000    8.6096000000    9.1744700000      0.1302980000    0.0351120000    0.0125020000
Se      4.9522600000   14.3600100000    9.1744600000     -0.2481710000   -0.1412090000   -0.0283320000
Se      4.9522100000   14.3599800000    5.8392300000      0.2475300000    0.1416210000   -0.0297050000
