CRYSTAL
PRIMVEC
   9.9600000000000009   5.7504086809999997   0.0000000000000000
  -4.9800000000000004   8.6256130219999996   0.0000000000000000
   0.0000000000000000   0.0000000000000000  15.0000000000000000
PRIMCOORD
 36   1
Mo      4.9584400000   12.4467500000    7.5068200000     -0.2166540000   -0.0003180000   -0.0000320000
Mo      3.2983400000    9.5715300000    7.5068200000      0.1291910000    0.1750620000    0.0001700000
Mo      8.2784200000    6.6963700000    7.5068200000      0.1322550000    0.1762000000   -0.0006300000
Mo      6.6184700000    9.5715800000    7.5068200000      0.0846160000   -0.1750010000    0.0004840000
Mo     -1.6816600000    6.6963300000    7.5068200000      0.1286170000    0.1746960000   -0.0005040000
Mo     -0.0216400000    3.8210900000    7.5068200000     -0.2148830000    0.0018510000    0.0001260000
Mo      1.6383900000    0.9459200000    7.5068200000      0.0851070000   -0.1768760000    0.0003290000
Mo      4.9583600000    6.6962900000    7.5068200000     -0.2144140000    0.0022290000   -0.0001910000
Mo      6.6183900000    3.8211300000    7.5068200000      0.0857650000   -0.1763790000    0.0002860000
Mo      3.2984200000    3.8211700000    7.5068200000      0.1318810000    0.1759040000    0.0002010000
Mo      1.6384700000    6.6963800000    7.5068200000      0.0843070000   -0.1752900000   -0.0001170000
Mo     -0.0215600000    9.5715500000    7.5068200000     -0.2171200000   -0.0004210000   -0.0002360000
Se      4.9525100000    8.6097400000    9.1744200000      0.0089260000   -0.0160040000    0.0129880000
Se      3.2923300000   11.4849300000    5.8392200000     -0.0119920000    0.0050980000   -0.1644360000
Se      3.2923800000   11.4849500000    9.1744300000     -0.0124110000    0.0055940000    0.1640320000
Se      1.6322000000    8.6094900000    9.1744700000     -0.0003420000    0.0109590000   -0.1755690000
Se      1.6321600000    8.6094500000    5.8391800000     -0.0001480000    0.0105950000    0.1763930000
Se      6.6124500000    5.7344300000    9.1744300000      0.0035180000    0.0122910000   -0.1766210000
Se      6.6124100000    5.7343900000    5.8392200000      0.0030580000    0.0112470000    0.1771120000
Se      4.9524600000    8.6097100000    5.8392700000      0.0093820000   -0.0157200000   -0.0125180000
Se     -1.6876700000    8.6097300000    5.8392200000     -0.0126520000    0.0051020000   -0.1648700000
Se     -1.6876200000    8.6097400000    9.1744300000     -0.0128520000    0.0049750000    0.1634760000
Se      4.9522100000    2.8591600000    5.8392300000      0.0103070000   -0.0175020000   -0.0123630000
Se      4.9522600000    2.8591900000    9.1744600000      0.0099440000   -0.0178250000    0.0125960000
Se      3.2921300000    5.7343900000    9.1744700000     -0.0106020000    0.0083250000    0.1625140000
Se      3.2920800000    5.7343800000    5.8391800000     -0.0099560000    0.0075240000   -0.1635540000
Se     -0.0275400000    5.7345100000    5.8392700000      0.0088150000   -0.0165200000   -0.0129330000
Se     -0.0274900000    5.7345400000    9.1744200000      0.0084800000   -0.0159590000    0.0123390000
Se      6.6122000000   11.4846900000    9.1744700000     -0.0000470000    0.0113170000   -0.1750760000
Se      1.6324100000    2.8591900000    5.8392200000      0.0026280000    0.0109590000    0.1778200000
Se      1.6324500000    2.8592200000    9.1744300000      0.0028490000    0.0116060000   -0.1760940000
Se      6.6121600000   11.4846600000    5.8391800000     -0.0006370000    0.0100810000    0.1760910000
Se      8.2720800000    8.6095900000    5.8391800000     -0.0101650000    0.0081850000   -0.1637440000
Se      8.2721300000    8.6096000000    9.1744700000     -0.0105760000    0.0078000000    0.1628600000
Se      4.9522600000   14.3600100000    9.1744600000      0.0096140000   -0.0176840000    0.0125900000
Se      4.9522100000   14.3599800000    5.8392300000      0.0102310000   -0.0179960000   -0.0129920000
