CRYSTAL
PRIMVEC
   9.9600000000000009   5.7504086809999997   0.0000000000000000
  -4.9800000000000004   8.6256130219999996   0.0000000000000000
   0.0000000000000000   0.0000000000000000  15.0000000000000000
PRIMCOORD
 36   1
Mo      4.9584400000   12.4467500000    7.5068200000     -0.0016820000   -0.0006040000   -0.1587090000
Mo      3.2983400000    9.5715300000    7.5068200000      0.0001100000    0.0001340000   -0.2372560000
Mo      8.2784200000    6.6963700000    7.5068200000      0.0011340000    0.0016830000    0.1722540000
Mo      6.6184700000    9.5715800000    7.5068200000      0.0010260000   -0.0005920000   -0.0141670000
Mo     -1.6816600000    6.6963300000    7.5068200000      0.0001300000    0.0006600000    0.2373540000
Mo     -0.0216400000    3.8210900000    7.5068200000      0.0001940000   -0.0006090000   -0.1921060000
Mo      1.6383900000    0.9459200000    7.5068200000      0.0003200000   -0.0010670000   -0.0453870000
Mo      4.9583600000    6.6962900000    7.5068200000     -0.0010940000    0.0000120000    0.1921370000
Mo      6.6183900000    3.8211300000    7.5068200000      0.0001140000    0.0009710000    0.0452900000
Mo      3.2984200000    3.8211700000    7.5068200000     -0.0011810000   -0.0012930000   -0.1723890000
Mo      1.6384700000    6.6963800000    7.5068200000     -0.0003320000    0.0001500000    0.0143530000
Mo     -0.0215600000    9.5715500000    7.5068200000      0.0011230000    0.0005610000    0.1586470000
Se      4.9525100000    8.6097400000    9.1744200000     -0.0846980000    0.1335620000   -0.0301070000
Se      3.2923300000   11.4849300000    5.8392200000     -0.0603390000    0.0869420000   -0.1762500000
Se      3.2923800000   11.4849500000    9.1744300000      0.0580940000   -0.0876730000   -0.1743930000
Se      1.6322000000    8.6094900000    9.1744700000      0.1499410000    0.0185110000   -0.0292230000
Se      1.6321600000    8.6094500000    5.8391800000     -0.1491670000   -0.0184990000   -0.0292600000
Se      6.6124500000    5.7344300000    9.1744300000      0.0264600000   -0.0451410000    0.2041380000
Se      6.6124100000    5.7343900000    5.8392200000     -0.0258610000    0.0490310000    0.2062760000
Se      4.9524600000    8.6097100000    5.8392700000      0.0855410000   -0.1341400000   -0.0298200000
Se     -1.6876700000    8.6097300000    5.8392200000      0.0603970000   -0.0868130000    0.1756930000
Se     -1.6876200000    8.6097400000    9.1744300000     -0.0581060000    0.0880060000    0.1750330000
Se      4.9522100000    2.8591600000    5.8392300000      0.0850350000   -0.1039330000    0.0152630000
Se      4.9522600000    2.8591900000    9.1744600000     -0.0845320000    0.1050950000    0.0152460000
Se      3.2921300000    5.7343900000    9.1744700000     -0.0645130000   -0.1262030000    0.0144060000
Se      3.2920800000    5.7343800000    5.8391800000      0.0624200000    0.1245730000    0.0146390000
Se     -0.0275400000    5.7345100000    5.8392700000     -0.0853450000    0.1340130000    0.0303920000
Se     -0.0274900000    5.7345400000    9.1744200000      0.0847620000   -0.1337850000    0.0297490000
Se      6.6122000000   11.4846900000    9.1744700000     -0.1499300000   -0.0182740000    0.0287820000
Se      1.6324100000    2.8591900000    5.8392200000      0.0257870000   -0.0489030000   -0.2061380000
Se      1.6324500000    2.8592200000    9.1744300000     -0.0268880000    0.0451990000   -0.2043730000
Se      6.6121600000   11.4846600000    5.8391800000      0.1491650000    0.0185550000    0.0297600000
Se      8.2720800000    8.6095900000    5.8391800000     -0.0625290000   -0.1248090000   -0.0152700000
Se      8.2721300000    8.6096000000    9.1744700000      0.0643720000    0.1256750000   -0.0136070000
Se      4.9522600000   14.3600100000    9.1744600000      0.0844730000   -0.1049750000   -0.0156630000
Se      4.9522100000   14.3599800000    5.8392300000     -0.0848090000    0.1039960000   -0.0153010000
