CRYSTAL
PRIMVEC
   9.9600000000000009   5.7504086809999997   0.0000000000000000
  -4.9800000000000004   8.6256130219999996   0.0000000000000000
   0.0000000000000000   0.0000000000000000  15.0000000000000000
PRIMCOORD
 36   1
Mo      4.9584400000   12.4467500000    7.5068200000     -0.0074850000   -0.0039110000   -0.0000880000
Mo      3.2983400000    9.5715300000    7.5068200000     -0.0068620000   -0.0047850000   -0.0001150000
Mo      8.2784200000    6.6963700000    7.5068200000     -0.0069000000   -0.0048000000   -0.0000950000
Mo      6.6184700000    9.5715800000    7.5068200000     -0.0074900000   -0.0045450000   -0.0002710000
Mo     -1.6816600000    6.6963300000    7.5068200000     -0.0068630000   -0.0047850000   -0.0001100000
Mo     -0.0216400000    3.8210900000    7.5068200000     -0.0073990000   -0.0038830000   -0.0001030000
Mo      1.6383900000    0.9459200000    7.5068200000     -0.0074150000   -0.0045080000   -0.0002830000
Mo      4.9583600000    6.6962900000    7.5068200000     -0.0073850000   -0.0038730000   -0.0001020000
Mo      6.6183900000    3.8211300000    7.5068200000     -0.0074320000   -0.0045090000   -0.0002830000
Mo      3.2984200000    3.8211700000    7.5068200000     -0.0069100000   -0.0048090000   -0.0000940000
Mo      1.6384700000    6.6963800000    7.5068200000     -0.0074770000   -0.0045600000   -0.0002750000
Mo     -0.0215600000    9.5715500000    7.5068200000     -0.0074270000   -0.0039120000   -0.0000920000
Se      4.9525100000    8.6097400000    9.1744200000      0.0038670000    0.0025270000   -0.2040750000
Se      3.2923300000   11.4849300000    5.8392200000      0.0046540000    0.0023160000    0.2038950000
Se      3.2923800000   11.4849500000    9.1744300000      0.0042160000    0.0027940000   -0.2039550000
Se      1.6322000000    8.6094900000    9.1744700000      0.0037810000    0.0023760000   -0.2038980000
Se      1.6321600000    8.6094500000    5.8391800000      0.0036990000    0.0026870000    0.2038340000
Se      6.6124500000    5.7344300000    9.1744300000      0.0042700000    0.0026580000   -0.2038990000
Se      6.6124100000    5.7343900000    5.8392200000      0.0041840000    0.0029520000    0.2038400000
Se      4.9524600000    8.6097100000    5.8392700000      0.0047270000    0.0028570000    0.2043490000
Se     -1.6876700000    8.6097300000    5.8392200000      0.0045750000    0.0023210000    0.2038540000
Se     -1.6876200000    8.6097400000    9.1744300000      0.0041760000    0.0027970000   -0.2039170000
Se      4.9522100000    2.8591600000    5.8392300000      0.0042640000    0.0025720000    0.2043310000
Se      4.9522600000    2.8591900000    9.1744600000      0.0034020000    0.0022470000   -0.2040650000
Se      3.2921300000    5.7343900000    9.1744700000      0.0037280000    0.0024960000   -0.2039100000
Se      3.2920800000    5.7343800000    5.8391800000      0.0041220000    0.0020220000    0.2038460000
Se     -0.0275400000    5.7345100000    5.8392700000      0.0047350000    0.0028700000    0.2043240000
Se     -0.0274900000    5.7345400000    9.1744200000      0.0039200000    0.0025440000   -0.2040460000
Se      6.6122000000   11.4846900000    9.1744700000      0.0038100000    0.0023610000   -0.2038590000
Se      1.6324100000    2.8591900000    5.8392200000      0.0042180000    0.0029430000    0.2038390000
Se      1.6324500000    2.8592200000    9.1744300000      0.0042860000    0.0026500000   -0.2038930000
Se      6.6121600000   11.4846600000    5.8391800000      0.0037230000    0.0026680000    0.2037700000
Se      8.2720800000    8.6095900000    5.8391800000      0.0040910000    0.0020110000    0.2038240000
Se      8.2721300000    8.6096000000    9.1744700000      0.0036910000    0.0024830000   -0.2038930000
Se      4.9522600000   14.3600100000    9.1744600000      0.0034530000    0.0022440000   -0.2040520000
Se      4.9522100000   14.3599800000    5.8392300000      0.0042790000    0.0025690000    0.2043120000
