CRYSTAL
PRIMVEC
   9.9600000000000009   5.7504086809999997   0.0000000000000000
  -4.9800000000000004   8.6256130219999996   0.0000000000000000
   0.0000000000000000   0.0000000000000000  15.0000000000000000
PRIMCOORD
 36   1
Mo      4.9584400000   12.4467500000    7.5068200000     -0.0265430000   -0.2432100000   -0.0007350000
Mo      3.2983400000    9.5715300000    7.5068200000      0.1623200000   -0.1788390000   -0.0000380000
Mo      8.2784200000    6.6963700000    7.5068200000     -0.1876280000    0.2386550000    0.0003400000
Mo      6.6184700000    9.5715800000    7.5068200000      0.1897780000    0.0185130000    0.0000000000
Mo     -1.6816600000    6.6963300000    7.5068200000      0.1551130000   -0.1569510000   -0.0003550000
Mo     -0.0216400000    3.8210900000    7.5068200000      0.0748210000    0.2447500000   -0.0006030000
Mo      1.6383900000    0.9459200000    7.5068200000     -0.2323420000   -0.0410960000    0.0010280000
Mo      4.9583600000    6.6962900000    7.5068200000      0.0846350000    0.2228580000   -0.0006550000
Mo      6.6183900000    3.8211300000    7.5068200000     -0.2210470000   -0.0690500000    0.0013450000
Mo      3.2984200000    3.8211700000    7.5068200000     -0.1845360000    0.2277240000    0.0003520000
Mo      1.6384700000    6.6963800000    7.5068200000      0.1957790000    0.0066770000    0.0001350000
Mo     -0.0215600000    9.5715500000    7.5068200000     -0.0212470000   -0.2515580000   -0.0006360000
Se      4.9525100000    8.6097400000    9.1744200000     -0.0977210000   -0.0407950000   -0.0766730000
Se      3.2923300000   11.4849300000    5.8392200000      0.0550280000    0.0677320000   -0.0522430000
Se      3.2923800000   11.4849500000    9.1744300000      0.0542800000    0.0678440000    0.0523260000
Se      1.6322000000    8.6094900000    9.1744700000     -0.0528540000    0.0395210000   -0.0173200000
Se      1.6321600000    8.6094500000    5.8391800000     -0.0529740000    0.0396730000    0.0175870000
Se      6.6124500000    5.7344300000    9.1744300000      0.0357030000   -0.0149610000    0.0175540000
Se      6.6124100000    5.7343900000    5.8392200000      0.0353800000   -0.0142950000   -0.0180110000
Se      4.9524600000    8.6097100000    5.8392700000     -0.0975160000   -0.0410100000    0.0764250000
Se     -1.6876700000    8.6097300000    5.8392200000      0.0597960000    0.0572130000   -0.0524710000
Se     -1.6876200000    8.6097400000    9.1744300000      0.0593710000    0.0573910000    0.0528020000
Se      4.9522100000    2.8591600000    5.8392300000      0.1167750000    0.0505610000   -0.0821370000
Se      4.9522600000    2.8591900000    9.1744600000      0.1173450000    0.0511640000    0.0821330000
Se      3.2921300000    5.7343900000    9.1744700000     -0.0656400000   -0.0813820000   -0.0572620000
Se      3.2920800000    5.7343800000    5.8391800000     -0.0651210000   -0.0812160000    0.0570570000
Se     -0.0275400000    5.7345100000    5.8392700000     -0.0936650000   -0.0498020000    0.0782100000
Se     -0.0274900000    5.7345400000    9.1744200000     -0.0936090000   -0.0496530000   -0.0782560000
Se      6.6122000000   11.4846900000    9.1744700000     -0.0500990000    0.0318070000   -0.0166920000
Se      1.6324100000    2.8591900000    5.8392200000      0.0408580000   -0.0250180000   -0.0147290000
Se      1.6324500000    2.8592200000    9.1744300000      0.0410760000   -0.0255360000    0.0143950000
Se      6.6121600000   11.4846600000    5.8391800000     -0.0503170000    0.0319820000    0.0171870000
Se      8.2720800000    8.6095900000    5.8391800000     -0.0617630000   -0.0890060000    0.0563060000
Se      8.2721300000    8.6096000000    9.1744700000     -0.0619630000   -0.0891770000   -0.0565180000
Se      4.9522600000   14.3600100000    9.1744600000      0.1201510000    0.0436450000    0.0832800000
Se      4.9522100000   14.3599800000    5.8392300000      0.1196280000    0.0430330000   -0.0831200000
