CRYSTAL
PRIMVEC
   9.9600000000000009   5.7504086809999997   0.0000000000000000
  -4.9800000000000004   8.6256130219999996   0.0000000000000000
   0.0000000000000000   0.0000000000000000  15.0000000000000000
PRIMCOORD
 36   1
Mo      4.9584400000   12.4467500000    7.5068200000     -0.0183900000   -0.0067350000    0.0002060000
Mo      3.2983400000    9.5715300000    7.5068200000      0.0167730000    0.0134210000   -0.0002030000
Mo      8.2784200000    6.6963700000    7.5068200000     -0.0148920000   -0.0122750000    0.0001030000
Mo      6.6184700000    9.5715800000    7.5068200000     -0.0150290000   -0.0089380000    0.0001470000
Mo     -1.6816600000    6.6963300000    7.5068200000      0.0177500000    0.0136210000   -0.0001970000
Mo     -0.0216400000    3.8210900000    7.5068200000      0.0205550000    0.0085070000   -0.0000810000
Mo      1.6383900000    0.9459200000    7.5068200000      0.0171470000    0.0099880000   -0.0001620000
Mo      4.9583600000    6.6962900000    7.5068200000      0.0198640000    0.0078840000   -0.0002070000
Mo      6.6183900000    3.8211300000    7.5068200000      0.0171880000    0.0097460000   -0.0002270000
Mo      3.2984200000    3.8211700000    7.5068200000     -0.0151420000   -0.0120470000    0.0001400000
Mo      1.6384700000    6.6963800000    7.5068200000     -0.0147560000   -0.0083210000    0.0002050000
Mo     -0.0215600000    9.5715500000    7.5068200000     -0.0177050000   -0.0071660000    0.0001970000
Se      4.9525100000    8.6097400000    9.1744200000      0.1786810000    0.1024390000   -0.0190200000
Se      3.2923300000   11.4849300000    5.8392200000      0.1799550000    0.0926140000   -0.0045880000
Se      3.2923800000   11.4849500000    9.1744300000      0.1815720000    0.0933610000    0.0010390000
Se      1.6322000000    8.6094900000    9.1744700000     -0.1721260000   -0.1107000000    0.0009310000
Se      1.6321600000    8.6094500000    5.8391800000     -0.1708010000   -0.1094600000    0.0028570000
Se      6.6124500000    5.7344300000    9.1744300000      0.1714960000    0.1110500000   -0.0000070000
Se      6.6124100000    5.7343900000    5.8392200000      0.1695600000    0.1097780000   -0.0041160000
Se      4.9524600000    8.6097100000    5.8392700000      0.1768080000    0.1013640000    0.0154230000
Se     -1.6876700000    8.6097300000    5.8392200000      0.1797160000    0.0911660000   -0.0055440000
Se     -1.6876200000    8.6097400000    9.1744300000      0.1815290000    0.0919240000    0.0018410000
Se      4.9522100000    2.8591600000    5.8392300000     -0.1752870000   -0.1008660000   -0.0158660000
Se      4.9522600000    2.8591900000    9.1744600000     -0.1771100000   -0.1020660000    0.0194350000
Se      3.2921300000    5.7343900000    9.1744700000     -0.1813070000   -0.0933460000    0.0001990000
Se      3.2920800000    5.7343800000    5.8391800000     -0.1790800000   -0.0927000000    0.0033970000
Se     -0.0275400000    5.7345100000    5.8392700000      0.1736510000    0.1007340000    0.0146260000
Se     -0.0274900000    5.7345400000    9.1744200000      0.1751560000    0.1014670000   -0.0178650000
Se      6.6122000000   11.4846900000    9.1744700000     -0.1712950000   -0.1119660000   -0.0019900000
Se      1.6324100000    2.8591900000    5.8392200000      0.1694660000    0.1098350000   -0.0056830000
Se      1.6324500000    2.8592200000    9.1744300000      0.1711800000    0.1112490000    0.0018550000
Se      6.6121600000   11.4846600000    5.8391800000     -0.1698660000   -0.1107240000    0.0057180000
Se      8.2720800000    8.6095900000    5.8391800000     -0.1812290000   -0.0918110000    0.0059960000
Se      8.2721300000    8.6096000000    9.1744700000     -0.1830350000   -0.0921880000   -0.0018290000
Se      4.9522600000   14.3600100000    9.1744600000     -0.1779540000   -0.1028030000    0.0184160000
Se      4.9522100000   14.3599800000    5.8392300000     -0.1760000000   -0.1016430000   -0.0151670000
