CRYSTAL
PRIMVEC
   9.9600000000000009   5.7504086809999997   0.0000000000000000
  -4.9800000000000004   8.6256130219999996   0.0000000000000000
   0.0000000000000000   0.0000000000000000  15.0000000000000000
PRIMCOORD
 36   1
Mo      4.9584400000   12.4467500000    7.5068200000     -0.1001780000    0.2290370000   -0.0012640000
Mo      3.2983400000    9.5715300000    7.5068200000      0.1537690000   -0.1984770000    0.0010650000
Mo      8.2784200000    6.6963700000    7.5068200000     -0.1509100000    0.1968000000    0.0008200000
Mo      6.6184700000    9.5715800000    7.5068200000     -0.1049480000    0.1900870000   -0.0003060000
Mo     -1.6816600000    6.6963300000    7.5068200000      0.1539180000   -0.1984960000    0.0008430000
Mo     -0.0216400000    3.8210900000    7.5068200000      0.1018260000   -0.2329370000   -0.0006200000
Mo      1.6383900000    0.9459200000    7.5068200000      0.1054530000   -0.1906480000    0.0001610000
Mo      4.9583600000    6.6962900000    7.5068200000      0.1016670000   -0.2335100000   -0.0007110000
Mo      6.6183900000    3.8211300000    7.5068200000      0.1047970000   -0.1906290000    0.0004780000
Mo      3.2984200000    3.8211700000    7.5068200000     -0.1512880000    0.1957920000    0.0006300000
Mo      1.6384700000    6.6963800000    7.5068200000     -0.1051100000    0.1901230000   -0.0000660000
Mo     -0.0215600000    9.5715500000    7.5068200000     -0.1011100000    0.2295130000   -0.0010810000
Se      4.9525100000    8.6097400000    9.1744200000     -0.0643800000    0.1077070000    0.0016120000
Se      3.2923300000   11.4849300000    5.8392200000     -0.0617790000    0.0857970000   -0.0124120000
Se      3.2923800000   11.4849500000    9.1744300000     -0.0624050000    0.0851750000    0.0121050000
Se      1.6322000000    8.6094900000    9.1744700000      0.0422170000   -0.0987790000    0.0142400000
Se      1.6321600000    8.6094500000    5.8391800000      0.0414170000   -0.0987920000   -0.0141780000
Se      6.6124500000    5.7344300000    9.1744300000     -0.0424040000    0.0992770000   -0.0144540000
Se      6.6124100000    5.7343900000    5.8392200000     -0.0429160000    0.0994850000    0.0141250000
Se      4.9524600000    8.6097100000    5.8392700000     -0.0638420000    0.1073090000   -0.0017090000
Se     -1.6876700000    8.6097300000    5.8392200000     -0.0618820000    0.0858560000   -0.0119900000
Se     -1.6876200000    8.6097400000    9.1744300000     -0.0623610000    0.0852770000    0.0118560000
Se      4.9522100000    2.8591600000    5.8392300000      0.0632570000   -0.1058670000    0.0015720000
Se      4.9522600000    2.8591900000    9.1744600000      0.0631720000   -0.1050760000   -0.0015230000
Se      3.2921300000    5.7343900000    9.1744700000      0.0618770000   -0.0845240000   -0.0116300000
Se      3.2920800000    5.7343800000    5.8391800000      0.0620560000   -0.0841200000    0.0119100000
Se     -0.0275400000    5.7345100000    5.8392700000     -0.0639160000    0.1071740000   -0.0014670000
Se     -0.0274900000    5.7345400000    9.1744200000     -0.0642340000    0.1075290000    0.0012820000
Se      6.6122000000   11.4846900000    9.1744700000      0.0418620000   -0.0985800000    0.0142000000
Se      1.6324100000    2.8591900000    5.8392200000     -0.0428070000    0.0995150000    0.0144380000
Se      1.6324500000    2.8592200000    9.1744300000     -0.0423750000    0.0994150000   -0.0145940000
Se      6.6121600000   11.4846600000    5.8391800000      0.0411040000   -0.0986070000   -0.0138120000
Se      8.2720800000    8.6095900000    5.8391800000      0.0618620000   -0.0844830000    0.0120790000
Se      8.2721300000    8.6096000000    9.1744700000      0.0618090000   -0.0850030000   -0.0118490000
Se      4.9522600000   14.3600100000    9.1744600000      0.0628340000   -0.1050620000   -0.0011890000
Se      4.9522100000   14.3599800000    5.8392300000      0.0630830000   -0.1059300000    0.0014250000
