CRYSTAL
PRIMVEC
   9.9600000000000009   5.7504086809999997   0.0000000000000000
  -4.9800000000000004   8.6256130219999996   0.0000000000000000
   0.0000000000000000   0.0000000000000000  15.0000000000000000
PRIMCOORD
 36   1
Mo      4.9584400000   12.4467500000    7.5068200000     -0.1956380000   -0.1943020000    0.0000320000
Mo      3.2983400000    9.5715300000    7.5068200000      0.0794300000   -0.1473290000    0.0000940000
Mo      8.2784200000    6.6963700000    7.5068200000     -0.1621570000   -0.0073990000    0.0001350000
Mo      6.6184700000    9.5715800000    7.5068200000      0.3538510000    0.1995390000   -0.0003070000
Mo     -1.6816600000    6.6963300000    7.5068200000     -0.0793500000    0.1470900000   -0.0001820000
Mo     -0.0216400000    3.8210900000    7.5068200000      0.0157750000   -0.1418670000   -0.0002120000
Mo      1.6383900000    0.9459200000    7.5068200000      0.0633590000   -0.0055500000    0.0001730000
Mo      4.9583600000    6.6962900000    7.5068200000     -0.0160340000    0.1421790000   -0.0000710000
Mo      6.6183900000    3.8211300000    7.5068200000     -0.0632620000    0.0051120000   -0.0003490000
Mo      3.2984200000    3.8211700000    7.5068200000      0.1620290000    0.0078620000    0.0000180000
Mo      1.6384700000    6.6963800000    7.5068200000     -0.3545200000   -0.1994600000    0.0005660000
Mo     -0.0215600000    9.5715500000    7.5068200000      0.1957600000    0.1938460000    0.0000600000
Se      4.9525100000    8.6097400000    9.1744200000     -0.1411910000   -0.0764550000    0.0377250000
Se      3.2923300000   11.4849300000    5.8392200000      0.0717920000    0.0932950000    0.0185080000
Se      3.2923800000   11.4849500000    9.1744300000      0.0719480000    0.0931660000   -0.0186150000
Se      1.6322000000    8.6094900000    9.1744700000     -0.0162520000    0.0856950000    0.0419150000
Se      1.6321600000    8.6094500000    5.8391800000     -0.0164210000    0.0859000000   -0.0421360000
Se      6.6124500000    5.7344300000    9.1744300000      0.0697080000   -0.0164680000   -0.0207310000
Se      6.6124100000    5.7343900000    5.8392200000      0.0696290000   -0.0166790000    0.0209700000
Se      4.9524600000    8.6097100000    5.8392700000     -0.1409230000   -0.0764040000   -0.0377070000
Se     -1.6876700000    8.6097300000    5.8392200000     -0.0719140000   -0.0930880000   -0.0184470000
Se     -1.6876200000    8.6097400000    9.1744300000     -0.0719630000   -0.0929390000    0.0187140000
Se      4.9522100000    2.8591600000    5.8392300000     -0.0415720000   -0.0457220000    0.1308100000
Se      4.9522600000    2.8591900000    9.1744600000     -0.0421830000   -0.0459060000   -0.1315090000
Se      3.2921300000    5.7343900000    9.1744700000      0.0575820000   -0.0407320000    0.0879010000
Se      3.2920800000    5.7343800000    5.8391800000      0.0572110000   -0.0407760000   -0.0874440000
Se     -0.0275400000    5.7345100000    5.8392700000      0.1412060000    0.0763690000    0.0379550000
Se     -0.0274900000    5.7345400000    9.1744200000      0.1412400000    0.0766120000   -0.0379680000
Se      6.6122000000   11.4846900000    9.1744700000      0.0162990000   -0.0856590000   -0.0419860000
Se      1.6324100000    2.8591900000    5.8392200000     -0.0694240000    0.0166950000   -0.0210620000
Se      1.6324500000    2.8592200000    9.1744300000     -0.0693700000    0.0165140000    0.0210460000
Se      6.6121600000   11.4846600000    5.8391800000      0.0163890000   -0.0857660000    0.0421110000
Se      8.2720800000    8.6095900000    5.8391800000     -0.0571640000    0.0404220000    0.0873350000
Se      8.2721300000    8.6096000000    9.1744700000     -0.0573270000    0.0402970000   -0.0879700000
Se      4.9522600000   14.3600100000    9.1744600000      0.0420940000    0.0460310000    0.1316020000
Se      4.9522100000   14.3599800000    5.8392300000      0.0413830000    0.0459090000   -0.1309700000
