CRYSTAL
PRIMVEC
   9.9600000000000009   5.7504086809999997   0.0000000000000000
  -4.9800000000000004   8.6256130219999996   0.0000000000000000
   0.0000000000000000   0.0000000000000000  15.0000000000000000
PRIMCOORD
 36   1
Mo      4.9584400000   12.4467500000    7.5068200000      0.0006120000   -0.0000690000    0.0084030000
Mo      3.2983400000    9.5715300000    7.5068200000      0.0001760000   -0.0003310000   -0.0045620000
Mo      8.2784200000    6.6963700000    7.5068200000     -0.0003010000   -0.0002170000   -0.0071940000
Mo      6.6184700000    9.5715800000    7.5068200000     -0.0001650000    0.0003670000   -0.0011800000
Mo     -1.6816600000    6.6963300000    7.5068200000     -0.0002590000    0.0003470000    0.0045480000
Mo     -0.0216400000    3.8210900000    7.5068200000     -0.0001700000    0.0002990000   -0.0044660000
Mo      1.6383900000    0.9459200000    7.5068200000      0.0005580000   -0.0005820000   -0.0000860000
Mo      4.9583600000    6.6962900000    7.5068200000      0.0001620000   -0.0003540000    0.0043740000
Mo      6.6183900000    3.8211300000    7.5068200000     -0.0005880000    0.0005970000    0.0000080000
Mo      3.2984200000    3.8211700000    7.5068200000      0.0003300000    0.0002510000    0.0071900000
Mo      1.6384700000    6.6963800000    7.5068200000      0.0001590000   -0.0003650000    0.0013280000
Mo     -0.0215600000    9.5715500000    7.5068200000     -0.0005560000    0.0000620000   -0.0083530000
Se      4.9525100000    8.6097400000    9.1744200000     -0.0840920000    0.1549630000   -0.0010310000
Se      3.2923300000   11.4849300000    5.8392200000      0.1075840000   -0.2235350000   -0.0000690000
Se      3.2923800000   11.4849500000    9.1744300000     -0.1078520000    0.2241320000   -0.0008320000
Se      1.6322000000    8.6094900000    9.1744700000      0.1268130000   -0.0967890000   -0.0162670000
Se      1.6321600000    8.6094500000    5.8391800000     -0.1275170000    0.0964330000   -0.0153630000
Se      6.6124500000    5.7344300000    9.1744300000     -0.1513590000    0.2143020000    0.0019480000
Se      6.6124100000    5.7343900000    5.8392200000      0.1508560000   -0.2139710000    0.0011000000
Se      4.9524600000    8.6097100000    5.8392700000      0.0845150000   -0.1559160000   -0.0012980000
Se     -1.6876700000    8.6097300000    5.8392200000     -0.1072710000    0.2233210000   -0.0000340000
Se     -1.6876200000    8.6097400000    9.1744300000      0.1077200000   -0.2239970000    0.0005560000
Se      4.9522100000    2.8591600000    5.8392300000     -0.1034200000    0.1602150000   -0.0019580000
Se      4.9522600000    2.8591900000    9.1744600000      0.1029710000   -0.1600620000   -0.0017750000
Se      3.2921300000    5.7343900000    9.1744700000      0.0104550000   -0.1606250000    0.0180980000
Se      3.2920800000    5.7343800000    5.8391800000     -0.0100670000    0.1603080000    0.0177170000
Se     -0.0275400000    5.7345100000    5.8392700000     -0.0845160000    0.1562220000    0.0015130000
Se     -0.0274900000    5.7345400000    9.1744200000      0.0838210000   -0.1553780000    0.0010280000
Se      6.6122000000   11.4846900000    9.1744700000     -0.1269280000    0.0970010000    0.0159610000
Se      1.6324100000    2.8591900000    5.8392200000     -0.1508420000    0.2140400000   -0.0009920000
Se      1.6324500000    2.8592200000    9.1744300000      0.1513430000   -0.2142120000   -0.0015870000
Se      6.6121600000   11.4846600000    5.8391800000      0.1276190000   -0.0965480000    0.0153190000
Se      8.2720800000    8.6095900000    5.8391800000      0.0100950000   -0.1600390000   -0.0179970000
Se      8.2721300000    8.6096000000    9.1744700000     -0.0103480000    0.1605060000   -0.0181960000
Se      4.9522600000   14.3600100000    9.1744600000     -0.1029170000    0.1602880000    0.0020940000
Se      4.9522100000   14.3599800000    5.8392300000      0.1033490000   -0.1606650000    0.0020520000
