CRYSTAL
PRIMVEC
   9.9600000000000009   5.7504086809999997   0.0000000000000000
  -4.9800000000000004   8.6256130219999996   0.0000000000000000
   0.0000000000000000   0.0000000000000000  15.0000000000000000
PRIMCOORD
 36   1
Mo      4.9584400000   12.4467500000    7.5068200000     -0.0004580000    0.0016950000    0.1665480000
Mo      3.2983400000    9.5715300000    7.5068200000      0.0018880000    0.0013620000    0.0414460000
Mo      8.2784200000    6.6963700000    7.5068200000      0.0021360000    0.0001120000    0.0932660000
Mo      6.6184700000    9.5715800000    7.5068200000     -0.0017390000   -0.0016530000   -0.2611420000
Mo     -1.6816600000    6.6963300000    7.5068200000     -0.0013070000   -0.0014830000   -0.0415600000
Mo     -0.0216400000    3.8210900000    7.5068200000     -0.0021270000    0.0004100000   -0.1253520000
Mo      1.6383900000    0.9459200000    7.5068200000      0.0022670000    0.0007240000    0.1687510000
Mo      4.9583600000    6.6962900000    7.5068200000      0.0018450000    0.0003790000    0.1255010000
Mo      6.6183900000    3.8211300000    7.5068200000     -0.0025330000   -0.0010070000   -0.1686040000
Mo      3.2984200000    3.8211700000    7.5068200000     -0.0011840000   -0.0000560000   -0.0934420000
Mo      1.6384700000    6.6963800000    7.5068200000      0.0012420000    0.0009720000    0.2611620000
Mo     -0.0215600000    9.5715500000    7.5068200000      0.0002120000   -0.0014590000   -0.1665970000
Se      4.9525100000    8.6097400000    9.1744200000      0.1074660000    0.0995090000   -0.0429720000
Se      3.2923300000   11.4849300000    5.8392200000      0.1257690000   -0.0234830000    0.0174880000
Se      3.2923800000   11.4849500000    9.1744300000     -0.1275950000    0.0275770000    0.0174530000
Se      1.6322000000    8.6094900000    9.1744700000     -0.0700860000    0.1442300000    0.0680230000
Se      1.6321600000    8.6094500000    5.8391800000      0.0744790000   -0.1427030000    0.0690900000
Se      6.6124500000    5.7344300000    9.1744300000      0.0215010000   -0.1270990000    0.0236420000
Se      6.6124100000    5.7343900000    5.8392200000     -0.0177920000    0.1258950000    0.0244200000
Se      4.9524600000    8.6097100000    5.8392700000     -0.1080440000   -0.1014300000   -0.0446480000
Se     -1.6876700000    8.6097300000    5.8392200000     -0.1260310000    0.0236130000   -0.0174230000
Se     -1.6876200000    8.6097400000    9.1744300000      0.1275260000   -0.0276340000   -0.0175570000
Se      4.9522100000    2.8591600000    5.8392300000     -0.0100200000    0.0245180000   -0.2161360000
Se      4.9522600000    2.8591900000    9.1744600000      0.0053080000   -0.0280490000   -0.2146450000
Se      3.2921300000    5.7343900000    9.1744700000      0.0651130000   -0.1161550000    0.1460980000
Se      3.2920800000    5.7343800000    5.8391800000     -0.0627840000    0.1179020000    0.1479740000
Se     -0.0275400000    5.7345100000    5.8392700000      0.1081590000    0.1013760000    0.0439370000
Se     -0.0274900000    5.7345400000    9.1744200000     -0.1077060000   -0.0993960000    0.0437580000
Se      6.6122000000   11.4846900000    9.1744700000      0.0701210000   -0.1444500000   -0.0684370000
Se      1.6324100000    2.8591900000    5.8392200000      0.0178650000   -0.1256230000   -0.0238650000
Se      1.6324500000    2.8592200000    9.1744300000     -0.0212860000    0.1274250000   -0.0241870000
Se      6.6121600000   11.4846600000    5.8391800000     -0.0744550000    0.1423430000   -0.0686630000
Se      8.2720800000    8.6095900000    5.8391800000      0.0630180000   -0.1176840000   -0.1478930000
Se      8.2721300000    8.6096000000    9.1744700000     -0.0653620000    0.1161430000   -0.1462080000
Se      4.9522600000   14.3600100000    9.1744600000     -0.0053750000    0.0278620000    0.2150530000
Se      4.9522100000   14.3599800000    5.8392300000      0.0106230000   -0.0246800000    0.2157310000
