CRYSTAL
PRIMVEC
   9.9600000000000009   5.7504086809999997   0.0000000000000000
  -4.9800000000000004   8.6256130219999996   0.0000000000000000
   0.0000000000000000   0.0000000000000000  15.0000000000000000
PRIMCOORD
 36   1
Mo      4.9584400000   12.4467500000    7.5068200000     -0.2018280000   -0.1082620000    0.0003610000
Mo      3.2983400000    9.5715300000    7.5068200000      0.1885980000    0.1172750000   -0.0001870000
Mo      8.2784200000    6.6963700000    7.5068200000     -0.1939680000   -0.1212810000   -0.0000170000
Mo      6.6184700000    9.5715800000    7.5068200000     -0.2039460000   -0.1173900000    0.0000260000
Mo     -1.6816600000    6.6963300000    7.5068200000      0.1893350000    0.1168380000   -0.0009080000
Mo     -0.0216400000    3.8210900000    7.5068200000      0.1959570000    0.1051490000    0.0006050000
Mo      1.6383900000    0.9459200000    7.5068200000      0.1968120000    0.1147220000   -0.0007810000
Mo      4.9583600000    6.6962900000    7.5068200000      0.1943610000    0.1060480000   -0.0000320000
Mo      6.6183900000    3.8211300000    7.5068200000      0.1980080000    0.1148070000   -0.0000810000
Mo      3.2984200000    3.8211700000    7.5068200000     -0.1952710000   -0.1176640000   -0.0006520000
Mo      1.6384700000    6.6963800000    7.5068200000     -0.2023540000   -0.1197680000    0.0008620000
Mo     -0.0215600000    9.5715500000    7.5068200000     -0.1979220000   -0.1093740000    0.0005680000
Se      4.9525100000    8.6097400000    9.1744200000     -0.0074470000   -0.0048470000   -0.1225260000
Se      3.2923300000   11.4849300000    5.8392200000     -0.0103350000   -0.0081650000    0.1265360000
Se      3.2923800000   11.4849500000    9.1744300000     -0.0104180000   -0.0078960000   -0.1266820000
Se      1.6322000000    8.6094900000    9.1744700000      0.0139430000    0.0078580000    0.1260200000
Se      1.6321600000    8.6094500000    5.8391800000      0.0140850000    0.0079900000   -0.1265330000
Se      6.6124500000    5.7344300000    9.1744300000     -0.0116000000   -0.0055530000   -0.1262090000
Se      6.6124100000    5.7343900000    5.8392200000     -0.0116080000   -0.0054670000    0.1261860000
Se      4.9524600000    8.6097100000    5.8392700000     -0.0074210000   -0.0047850000    0.1225760000
Se     -1.6876700000    8.6097300000    5.8392200000     -0.0112210000   -0.0083080000    0.1256020000
Se     -1.6876200000    8.6097400000    9.1744300000     -0.0110020000   -0.0079170000   -0.1251600000
Se      4.9522100000    2.8591600000    5.8392300000      0.0104940000    0.0062400000   -0.1233720000
Se      4.9522600000    2.8591900000    9.1744600000      0.0108430000    0.0058970000    0.1234380000
Se      3.2921300000    5.7343900000    9.1744700000      0.0130910000    0.0092670000    0.1251430000
Se      3.2920800000    5.7343800000    5.8391800000      0.0132880000    0.0089830000   -0.1251860000
Se     -0.0275400000    5.7345100000    5.8392700000     -0.0080510000   -0.0039990000    0.1223280000
Se     -0.0274900000    5.7345400000    9.1744200000     -0.0076770000   -0.0043120000   -0.1226150000
Se      6.6122000000   11.4846900000    9.1744700000      0.0147870000    0.0068720000    0.1270610000
Se      1.6324100000    2.8591900000    5.8392200000     -0.0117130000   -0.0057640000    0.1266070000
Se      1.6324500000    2.8592200000    9.1744300000     -0.0121200000   -0.0055520000   -0.1262840000
Se      6.6121600000   11.4846600000    5.8391800000      0.0152000000    0.0068700000   -0.1267270000
Se      8.2720800000    8.6095900000    5.8391800000      0.0132310000    0.0096330000   -0.1272650000
Se      8.2721300000    8.6096000000    9.1744700000      0.0135960000    0.0096100000    0.1270470000
Se      4.9522600000   14.3600100000    9.1744600000      0.0107470000    0.0063670000    0.1221860000
Se      4.9522100000   14.3599800000    5.8392300000      0.0107560000    0.0065690000   -0.1219660000
