CRYSTAL
PRIMVEC
   9.9600000000000009   5.7504086809999997   0.0000000000000000
  -4.9800000000000004   8.6256130219999996   0.0000000000000000
   0.0000000000000000   0.0000000000000000  15.0000000000000000
PRIMCOORD
 36   1
Mo      4.9584400000   12.4467500000    7.5068200000     -0.0001020000    0.0000570000   -0.0218310000
Mo      3.2983400000    9.5715300000    7.5068200000     -0.0000580000    0.0002160000   -0.0238570000
Mo      8.2784200000    6.6963700000    7.5068200000      0.0001010000   -0.0001260000    0.0237800000
Mo      6.6184700000    9.5715800000    7.5068200000      0.0002830000   -0.0002600000   -0.0014740000
Mo     -1.6816600000    6.6963300000    7.5068200000     -0.0002100000    0.0001740000   -0.0238050000
Mo     -0.0216400000    3.8210900000    7.5068200000      0.0000200000   -0.0000510000    0.0223090000
Mo      1.6383900000    0.9459200000    7.5068200000     -0.0002410000    0.0001730000    0.0017070000
Mo      4.9583600000    6.6962900000    7.5068200000      0.0000600000   -0.0000230000    0.0221520000
Mo      6.6183900000    3.8211300000    7.5068200000     -0.0001060000    0.0002370000    0.0015660000
Mo      3.2984200000    3.8211700000    7.5068200000      0.0001600000   -0.0001720000    0.0234740000
Mo      1.6384700000    6.6963800000    7.5068200000      0.0001290000   -0.0002100000   -0.0018080000
Mo     -0.0215600000    9.5715500000    7.5068200000      0.0000590000   -0.0000250000   -0.0222540000
Se      4.9525100000    8.6097400000    9.1744200000      0.1145800000   -0.1983410000   -0.0115170000
Se      3.2923300000   11.4849300000    5.8392200000      0.0735470000   -0.0976700000   -0.1489060000
Se      3.2923800000   11.4849500000    9.1744300000     -0.0742510000    0.0982400000   -0.1458160000
Se      1.6322000000    8.6094900000    9.1744700000      0.0344800000   -0.0958950000   -0.1576290000
Se      1.6321600000    8.6094500000    5.8391800000     -0.0335940000    0.0940850000   -0.1596180000
Se      6.6124500000    5.7344300000    9.1744300000     -0.0328870000    0.0952070000    0.1570160000
Se      6.6124100000    5.7343900000    5.8392200000      0.0320350000   -0.0932310000    0.1589530000
Se      4.9524600000    8.6097100000    5.8392700000     -0.1133050000    0.1960690000   -0.0105410000
Se     -1.6876700000    8.6097300000    5.8392200000      0.0762010000   -0.0966660000   -0.1493170000
Se     -1.6876200000    8.6097400000    9.1744300000     -0.0765320000    0.0977550000   -0.1459430000
Se      4.9522100000    2.8591600000    5.8392300000      0.1135420000   -0.1978800000    0.0089480000
Se      4.9522600000    2.8591900000    9.1744600000     -0.1146940000    0.1999090000    0.0097030000
Se      3.2921300000    5.7343900000    9.1744700000      0.0770940000   -0.0973150000    0.1456020000
Se      3.2920800000    5.7343800000    5.8391800000     -0.0766460000    0.0966850000    0.1488650000
Se     -0.0275400000    5.7345100000    5.8392700000     -0.1114300000    0.1971600000   -0.0104460000
Se     -0.0274900000    5.7345400000    9.1744200000      0.1129510000   -0.1999460000   -0.0115500000
Se      6.6122000000   11.4846900000    9.1744700000      0.0336600000   -0.0961210000   -0.1563080000
Se      1.6324100000    2.8591900000    5.8392200000      0.0345830000   -0.0919860000    0.1599510000
Se      1.6324500000    2.8592200000    9.1744300000     -0.0358340000    0.0941180000    0.1573880000
Se      6.6121600000   11.4846600000    5.8391800000     -0.0329690000    0.0938420000   -0.1588540000
Se      8.2720800000    8.6095900000    5.8391800000     -0.0757020000    0.0969920000    0.1502250000
Se      8.2721300000    8.6096000000    9.1744700000      0.0767470000   -0.0976270000    0.1471210000
Se      4.9522600000   14.3600100000    9.1744600000     -0.1148180000    0.1998720000    0.0119860000
Se      4.9522100000   14.3599800000    5.8392300000      0.1133030000   -0.1972540000    0.0107190000
