CRYSTAL
PRIMVEC
   9.9600000000000009   5.7504086809999997   0.0000000000000000
  -4.9800000000000004   8.6256130219999996   0.0000000000000000
   0.0000000000000000   0.0000000000000000  15.0000000000000000
PRIMCOORD
 36   1
Mo      4.9584400000   12.4467500000    7.5068200000      0.1184210000   -0.2011230000    0.0013780000
Mo      3.2983400000    9.5715300000    7.5068200000     -0.0036600000    0.0017180000    0.0004580000
Mo      8.2784200000    6.6963700000    7.5068200000      0.1165800000   -0.2022950000   -0.0014930000
Mo      6.6184700000    9.5715800000    7.5068200000      0.1168870000   -0.2015960000   -0.0007280000
Mo     -1.6816600000    6.6963300000    7.5068200000      0.0037830000   -0.0016570000    0.0012350000
Mo     -0.0216400000    3.8210900000    7.5068200000     -0.0006610000   -0.0037860000   -0.0016150000
Mo      1.6383900000    0.9459200000    7.5068200000      0.0006560000   -0.0014900000    0.0003880000
Mo      4.9583600000    6.6962900000    7.5068200000      0.0007910000    0.0038150000   -0.0009740000
Mo      6.6183900000    3.8211300000    7.5068200000     -0.0007080000    0.0013860000    0.0004640000
Mo      3.2984200000    3.8211700000    7.5068200000     -0.1164550000    0.2021890000   -0.0002890000
Mo      1.6384700000    6.6963800000    7.5068200000     -0.1169280000    0.2015820000    0.0000240000
Mo     -0.0215600000    9.5715500000    7.5068200000     -0.1185370000    0.2012620000    0.0011760000
Se      4.9525100000    8.6097400000    9.1744200000      0.0234920000   -0.0399480000   -0.0003930000
Se      3.2923300000   11.4849300000    5.8392200000      0.0253810000   -0.0415540000    0.0009780000
Se      3.2923800000   11.4849500000    9.1744300000      0.0247490000   -0.0418540000    0.0006770000
Se      1.6322000000    8.6094900000    9.1744700000     -0.1190490000    0.1995320000    0.0008680000
Se      1.6321600000    8.6094500000    5.8391800000     -0.1195270000    0.2004590000    0.0000800000
Se      6.6124500000    5.7344300000    9.1744300000      0.0249560000   -0.0415120000   -0.0004810000
Se      6.6124100000    5.7343900000    5.8392200000      0.0246010000   -0.0430240000   -0.0010390000
Se      4.9524600000    8.6097100000    5.8392700000      0.0225540000   -0.0391280000   -0.0006180000
Se     -1.6876700000    8.6097300000    5.8392200000     -0.0247720000    0.0415880000    0.0010610000
Se     -1.6876200000    8.6097400000    9.1744300000     -0.0253880000    0.0419210000    0.0012120000
Se      4.9522100000    2.8591600000    5.8392300000     -0.1155180000    0.1992050000    0.0006350000
Se      4.9522600000    2.8591900000    9.1744600000     -0.1161560000    0.2003470000    0.0004230000
Se      3.2921300000    5.7343900000    9.1744700000     -0.1133100000    0.2024460000   -0.0010030000
Se      3.2920800000    5.7343800000    5.8391800000     -0.1143040000    0.2023570000    0.0004870000
Se     -0.0275400000    5.7345100000    5.8392700000     -0.0234160000    0.0405360000   -0.0001220000
Se     -0.0274900000    5.7345400000    9.1744200000     -0.0225290000    0.0386120000   -0.0000910000
Se      6.6122000000   11.4846900000    9.1744700000      0.1193710000   -0.2007160000    0.0003840000
Se      1.6324100000    2.8591900000    5.8392200000     -0.0241550000    0.0415550000   -0.0003920000
Se      1.6324500000    2.8592200000    9.1744300000     -0.0251840000    0.0427240000   -0.0008420000
Se      6.6121600000   11.4846600000    5.8391800000      0.1191590000   -0.1991230000    0.0014850000
Se      8.2720800000    8.6095900000    5.8391800000      0.1136220000   -0.2023050000   -0.0024640000
Se      8.2721300000    8.6096000000    9.1744700000      0.1140330000   -0.2025320000   -0.0010520000
Se      4.9522600000   14.3600100000    9.1744600000      0.1151880000   -0.1990030000    0.0003050000
Se      4.9522100000   14.3599800000    5.8392300000      0.1165420000   -0.2005570000   -0.0001220000
