CRYSTAL
PRIMVEC
   9.9600000000000009   5.7504086809999997   0.0000000000000000
  -4.9800000000000004   8.6256130219999996   0.0000000000000000
   0.0000000000000000   0.0000000000000000  15.0000000000000000
PRIMCOORD
 36   1
Mo      4.9584400000   12.4467500000    7.5068200000     -0.0000280000   -0.0000340000   -0.0120790000
Mo      3.2983400000    9.5715300000    7.5068200000     -0.0000130000    0.0002080000   -0.0148770000
Mo      8.2784200000    6.6963700000    7.5068200000     -0.0000940000    0.0000440000    0.0112700000
Mo      6.6184700000    9.5715800000    7.5068200000      0.0002100000   -0.0001510000    0.0006020000
Mo     -1.6816600000    6.6963300000    7.5068200000      0.0000510000   -0.0001590000   -0.0146420000
Mo     -0.0216400000    3.8210900000    7.5068200000     -0.0000550000   -0.0000290000    0.0157830000
Mo      1.6383900000    0.9459200000    7.5068200000     -0.0001670000    0.0002760000   -0.0008880000
Mo      4.9583600000    6.6962900000    7.5068200000      0.0001020000   -0.0002440000    0.0159420000
Mo      6.6183900000    3.8211300000    7.5068200000     -0.0000880000    0.0002090000   -0.0008070000
Mo      3.2984200000    3.8211700000    7.5068200000      0.0000430000    0.0000290000    0.0111870000
Mo      1.6384700000    6.6963800000    7.5068200000      0.0000370000   -0.0003580000    0.0006840000
Mo     -0.0215600000    9.5715500000    7.5068200000      0.0000500000    0.0002000000   -0.0121460000
Se      4.9525100000    8.6097400000    9.1744200000     -0.0097960000    0.0445740000    0.0016990000
Se      3.2923300000   11.4849300000    5.8392200000      0.2004740000    0.1528310000   -0.0239940000
Se      3.2923800000   11.4849500000    9.1744300000     -0.2005920000   -0.1520780000   -0.0232960000
Se      1.6322000000    8.6094900000    9.1744700000     -0.2236950000   -0.0931450000   -0.0215940000
Se      1.6321600000    8.6094500000    5.8391800000      0.2239940000    0.0922790000   -0.0216990000
Se      6.6124500000    5.7344300000    9.1744300000      0.2218410000    0.0868280000    0.0218870000
Se      6.6124100000    5.7343900000    5.8392200000     -0.2218940000   -0.0865860000    0.0221680000
Se      4.9524600000    8.6097100000    5.8392700000      0.0098270000   -0.0453920000    0.0020710000
Se     -1.6876700000    8.6097300000    5.8392200000      0.2005720000    0.1521030000   -0.0235640000
Se     -1.6876200000    8.6097400000    9.1744300000     -0.2008680000   -0.1522260000   -0.0232450000
Se      4.9522100000    2.8591600000    5.8392300000     -0.0042760000    0.0372320000   -0.0018050000
Se      4.9522600000    2.8591900000    9.1744600000      0.0041890000   -0.0365020000   -0.0009680000
Se      3.2921300000    5.7343900000    9.1744700000      0.2067580000    0.1512890000    0.0224530000
Se      3.2920800000    5.7343800000    5.8391800000     -0.2066050000   -0.1511900000    0.0233110000
Se     -0.0275400000    5.7345100000    5.8392700000      0.0087010000   -0.0442350000    0.0016520000
Se     -0.0274900000    5.7345400000    9.1744200000     -0.0083360000    0.0436140000    0.0014350000
Se      6.6122000000   11.4846900000    9.1744700000     -0.2226600000   -0.0931180000   -0.0219850000
Se      1.6324100000    2.8591900000    5.8392200000     -0.2222610000   -0.0862140000    0.0222620000
Se      1.6324500000    2.8592200000    9.1744300000      0.2218370000    0.0870030000    0.0221460000
Se      6.6121600000   11.4846600000    5.8391800000      0.2227040000    0.0929190000   -0.0222920000
Se      8.2720800000    8.6095900000    5.8391800000     -0.2058700000   -0.1511200000    0.0232190000
Se      8.2721300000    8.6096000000    9.1744700000      0.2062690000    0.1510370000    0.0229680000
Se      4.9522600000   14.3600100000    9.1744600000      0.0042870000   -0.0367660000   -0.0014990000
Se      4.9522100000   14.3599800000    5.8392300000     -0.0046060000    0.0368590000   -0.0013690000
