CRYSTAL
PRIMVEC
   9.9600000000000009   5.7504086809999997   0.0000000000000000
  -4.9800000000000004   8.6256130219999996   0.0000000000000000
   0.0000000000000000   0.0000000000000000  15.0000000000000000
PRIMCOORD
 36   1
Mo      4.9584400000   12.4467500000    7.5068200000      0.2031190000   -0.1056010000    0.0003050000
Mo      3.2983400000    9.5715300000    7.5068200000      0.1735860000    0.1802110000   -0.0008550000
Mo      8.2784200000    6.6963700000    7.5068200000     -0.1289710000   -0.1267460000   -0.0005650000
Mo      6.6184700000    9.5715800000    7.5068200000     -0.1044890000    0.3061950000   -0.0002220000
Mo     -1.6816600000    6.6963300000    7.5068200000      0.1842290000    0.1612380000   -0.0009690000
Mo     -0.0216400000    3.8210900000    7.5068200000     -0.2214200000    0.0580000000    0.0012000000
Mo      1.6383900000    0.9459200000    7.5068200000      0.0452730000   -0.2283180000    0.0002700000
Mo      4.9583600000    6.6962900000    7.5068200000     -0.2304960000    0.0786370000    0.0014180000
Mo      6.6183900000    3.8211300000    7.5068200000      0.0377660000   -0.2100700000   -0.0001220000
Mo      3.2984200000    3.8211700000    7.5068200000     -0.1132070000   -0.1741260000   -0.0004790000
Mo      1.6384700000    6.6963800000    7.5068200000     -0.0892530000    0.2584480000   -0.0002030000
Mo     -0.0215600000    9.5715500000    7.5068200000      0.2203260000   -0.1562460000    0.0004680000
Se      4.9525100000    8.6097400000    9.1744200000     -0.0079220000   -0.0576200000   -0.0207330000
Se      3.2923300000   11.4849300000    5.8392200000     -0.0707800000   -0.0242660000    0.0536430000
Se      3.2923800000   11.4849500000    9.1744300000     -0.0707940000   -0.0238150000   -0.0536170000
Se      1.6322000000    8.6094900000    9.1744700000     -0.1085260000   -0.0689730000   -0.0783620000
Se      1.6321600000    8.6094500000    5.8391800000     -0.1080660000   -0.0688860000    0.0781700000
Se      6.6124500000    5.7344300000    9.1744300000      0.0904050000    0.0501800000    0.0751310000
Se      6.6124100000    5.7343900000    5.8392200000      0.0909500000    0.0498230000   -0.0749810000
Se      4.9524600000    8.6097100000    5.8392700000     -0.0080430000   -0.0567890000    0.0204390000
Se     -1.6876700000    8.6097300000    5.8392200000     -0.0757160000   -0.0096230000    0.0556330000
Se     -1.6876200000    8.6097400000    9.1744300000     -0.0757490000   -0.0089940000   -0.0558810000
Se      4.9522100000    2.8591600000    5.8392300000      0.0015530000    0.0813040000   -0.0259310000
Se      4.9522600000    2.8591900000    9.1744600000      0.0017090000    0.0810220000    0.0261380000
Se      3.2921300000    5.7343900000    9.1744700000      0.0962310000    0.0156790000    0.0609210000
Se      3.2920800000    5.7343800000    5.8391800000      0.0955170000    0.0153670000   -0.0609390000
Se     -0.0275400000    5.7345100000    5.8392700000     -0.0132850000   -0.0413540000    0.0230620000
Se     -0.0274900000    5.7345400000    9.1744200000     -0.0131590000   -0.0421430000   -0.0232290000
Se      6.6122000000   11.4846900000    9.1744700000     -0.1000380000   -0.0895740000   -0.0811810000
Se      1.6324100000    2.8591900000    5.8392200000      0.0861790000    0.0646020000   -0.0722540000
Se      1.6324500000    2.8592200000    9.1744300000      0.0854840000    0.0647620000    0.0723210000
Se      6.6121600000   11.4846600000    5.8391800000     -0.0996790000   -0.0894210000    0.0810140000
Se      8.2720800000    8.6095900000    5.8391800000      0.1040880000   -0.0041590000   -0.0568290000
Se      8.2721300000    8.6096000000    9.1744700000      0.1047780000   -0.0038750000    0.0570320000
Se      4.9522600000   14.3600100000    9.1744600000      0.0106920000    0.0603480000    0.0211860000
Se      4.9522100000   14.3599800000    5.8392300000      0.0103680000    0.0604830000   -0.0209930000
