CRYSTAL
PRIMVEC
   9.9600000000000009   5.7504086809999997   0.0000000000000000
  -4.9800000000000004   8.6256130219999996   0.0000000000000000
   0.0000000000000000   0.0000000000000000  15.0000000000000000
PRIMCOORD
 36   1
Mo      4.9584400000   12.4467500000    7.5068200000      0.1181580000   -0.0745710000   -0.0001800000
Mo      3.2983400000    9.5715300000    7.5068200000     -0.0219650000    0.1412830000   -0.0002160000
Mo      8.2784200000    6.6963700000    7.5068200000     -0.0183630000    0.1412360000   -0.0000380000
Mo      6.6184700000    9.5715800000    7.5068200000     -0.1002340000   -0.0667310000    0.0000570000
Mo     -1.6816600000    6.6963300000    7.5068200000     -0.0213670000    0.1431610000   -0.0000680000
Mo     -0.0216400000    3.8210900000    7.5068200000      0.1167300000   -0.0787470000   -0.0002030000
Mo      1.6383900000    0.9459200000    7.5068200000     -0.0975540000   -0.0654350000    0.0000340000
Mo      4.9583600000    6.6962900000    7.5068200000      0.1168200000   -0.0785190000   -0.0001190000
Mo      6.6183900000    3.8211300000    7.5068200000     -0.0968770000   -0.0636870000    0.0000140000
Mo      3.2984200000    3.8211700000    7.5068200000     -0.0192340000    0.1424110000   -0.0001430000
Mo      1.6384700000    6.6963800000    7.5068200000     -0.0999200000   -0.0653270000    0.0000100000
Mo     -0.0215600000    9.5715500000    7.5068200000      0.1183740000   -0.0773660000   -0.0001550000
Se      4.9525100000    8.6097400000    9.1744200000     -0.1522460000   -0.0783660000   -0.0200200000
Se      3.2923300000   11.4849300000    5.8392200000      0.0002940000    0.1850220000   -0.0099340000
Se      3.2923800000   11.4849500000    9.1744300000      0.0017130000    0.1853470000    0.0096140000
Se      1.6322000000    8.6094900000    9.1744700000      0.1508540000   -0.1072480000    0.0096850000
Se      1.6321600000    8.6094500000    5.8391800000      0.1496290000   -0.1081270000   -0.0099910000
Se      6.6124500000    5.7344300000    9.1744300000      0.1523590000   -0.1061340000    0.0089930000
Se      6.6124100000    5.7343900000    5.8392200000      0.1516680000   -0.1067920000   -0.0092460000
Se      4.9524600000    8.6097100000    5.8392700000     -0.1537090000   -0.0788900000    0.0203060000
Se     -1.6876700000    8.6097300000    5.8392200000     -0.0000970000    0.1852240000   -0.0112830000
Se     -1.6876200000    8.6097400000    9.1744300000      0.0012830000    0.1858450000    0.0109550000
Se      4.9522100000    2.8591600000    5.8392300000     -0.1500360000   -0.0770870000    0.0205060000
Se      4.9522600000    2.8591900000    9.1744600000     -0.1488570000   -0.0765360000   -0.0203910000
Se      3.2921300000    5.7343900000    9.1744700000     -0.0004660000    0.1846090000    0.0106460000
Se      3.2920800000    5.7343800000    5.8391800000     -0.0016580000    0.1841480000   -0.0110200000
Se     -0.0275400000    5.7345100000    5.8392700000     -0.1535530000   -0.0781610000    0.0206090000
Se     -0.0274900000    5.7345400000    9.1744200000     -0.1523860000   -0.0777750000   -0.0201760000
Se      6.6122000000   11.4846900000    9.1744700000      0.1503820000   -0.1066800000    0.0081030000
Se      1.6324100000    2.8591900000    5.8392200000      0.1517250000   -0.1080930000   -0.0082700000
Se      1.6324500000    2.8592200000    9.1744300000      0.1524090000   -0.1072440000    0.0080470000
Se      6.6121600000   11.4846600000    5.8391800000      0.1495890000   -0.1075350000   -0.0081900000
Se      8.2720800000    8.6095900000    5.8391800000     -0.0013300000    0.1827110000   -0.0105470000
Se      8.2721300000    8.6096000000    9.1744700000      0.0001190000    0.1833130000    0.0101770000
Se      4.9522600000   14.3600100000    9.1744600000     -0.1489670000   -0.0757980000   -0.0179250000
Se      4.9522100000   14.3599800000    5.8392300000     -0.1501000000   -0.0760980000    0.0182030000
