CRYSTAL
PRIMVEC
   9.9600000000000009   5.7504086809999997   0.0000000000000000
  -4.9800000000000004   8.6256130219999996   0.0000000000000000
   0.0000000000000000   0.0000000000000000  15.0000000000000000
PRIMCOORD
 36   1
Mo      4.9584400000   12.4467500000    7.5068200000      0.0001060000    0.0004680000   -0.0185270000
Mo      3.2983400000    9.5715300000    7.5068200000     -0.0001370000   -0.0002450000   -0.0041580000
Mo      8.2784200000    6.6963700000    7.5068200000      0.0003120000   -0.0003580000   -0.0132230000
Mo      6.6184700000    9.5715800000    7.5068200000     -0.0000770000    0.0000760000    0.0341630000
Mo     -1.6816600000    6.6963300000    7.5068200000      0.0000370000    0.0001170000    0.0040840000
Mo     -0.0216400000    3.8210900000    7.5068200000      0.0001520000    0.0001290000    0.0049580000
Mo      1.6383900000    0.9459200000    7.5068200000     -0.0001560000   -0.0002410000   -0.0093010000
Mo      4.9583600000    6.6962900000    7.5068200000     -0.0001190000   -0.0001330000   -0.0049090000
Mo      6.6183900000    3.8211300000    7.5068200000      0.0000060000    0.0002410000    0.0093310000
Mo      3.2984200000    3.8211700000    7.5068200000     -0.0002670000    0.0003230000    0.0132730000
Mo      1.6384700000    6.6963800000    7.5068200000      0.0000370000    0.0000570000   -0.0341990000
Mo     -0.0215600000    9.5715500000    7.5068200000      0.0001210000   -0.0004430000    0.0185270000
Se      4.9525100000    8.6097400000    9.1744200000     -0.0206170000    0.0267160000    0.0114630000
Se      3.2923300000   11.4849300000    5.8392200000      0.0958250000   -0.1808380000   -0.0064990000
Se      3.2923800000   11.4849500000    9.1744300000     -0.0947820000    0.1813580000   -0.0062380000
Se      1.6322000000    8.6094900000    9.1744700000      0.1464170000    0.0222800000   -0.0291090000
Se      1.6321600000    8.6094500000    5.8391800000     -0.1461690000   -0.0237020000   -0.0296770000
Se      6.6124500000    5.7344300000    9.1744300000      0.1009930000   -0.1692600000   -0.0032490000
Se      6.6124100000    5.7343900000    5.8392200000     -0.1007830000    0.1700660000   -0.0034130000
Se      4.9524600000    8.6097100000    5.8392700000      0.0201540000   -0.0275810000    0.0114650000
Se     -1.6876700000    8.6097300000    5.8392200000     -0.0956760000    0.1808160000    0.0070290000
Se     -1.6876200000    8.6097400000    9.1744300000      0.0950380000   -0.1813780000    0.0067440000
Se      4.9522100000    2.8591600000    5.8392300000      0.2748740000    0.1632350000    0.0627120000
Se      4.9522600000    2.8591900000    9.1744600000     -0.2755730000   -0.1633520000    0.0633060000
Se      3.2921300000    5.7343900000    9.1744700000      0.1410850000    0.1267090000   -0.0388620000
Se      3.2920800000    5.7343800000    5.8391800000     -0.1416020000   -0.1257000000   -0.0390280000
Se     -0.0275400000    5.7345100000    5.8392700000     -0.0195470000    0.0273960000   -0.0117320000
Se     -0.0274900000    5.7345400000    9.1744200000      0.0198450000   -0.0268020000   -0.0119450000
Se      6.6122000000   11.4846900000    9.1744700000     -0.1466220000   -0.0224830000    0.0292490000
Se      1.6324100000    2.8591900000    5.8392200000      0.1006920000   -0.1701660000    0.0035960000
Se      1.6324500000    2.8592200000    9.1744300000     -0.1011230000    0.1696770000    0.0033470000
Se      6.6121600000   11.4846600000    5.8391800000      0.1463840000    0.0240380000    0.0295790000
Se      8.2720800000    8.6095900000    5.8391800000      0.1418700000    0.1258690000    0.0392930000
Se      8.2721300000    8.6096000000    9.1744700000     -0.1411780000   -0.1266790000    0.0390230000
Se      4.9522600000   14.3600100000    9.1744600000      0.2760030000    0.1632180000   -0.0636960000
Se      4.9522100000   14.3599800000    5.8392300000     -0.2755300000   -0.1634310000   -0.0633730000
