CRYSTAL
PRIMVEC
   9.9600000000000009   5.7504086809999997   0.0000000000000000
  -4.9800000000000004   8.6256130219999996   0.0000000000000000
   0.0000000000000000   0.0000000000000000  15.0000000000000000
PRIMCOORD
 36   1
Mo      4.9584400000   12.4467500000    7.5068200000      0.0001910000   -0.0008820000   -0.2407910000
Mo      3.2983400000    9.5715300000    7.5068200000     -0.0005070000    0.0006110000    0.2410360000
Mo      8.2784200000    6.6963700000    7.5068200000      0.0005230000    0.0001700000   -0.2403580000
Mo      6.6184700000    9.5715800000    7.5068200000     -0.0003000000   -0.0001490000   -0.2384190000
Mo     -1.6816600000    6.6963300000    7.5068200000     -0.0005120000   -0.0004650000    0.2410150000
Mo     -0.0216400000    3.8210900000    7.5068200000     -0.0000850000    0.0006740000    0.2408600000
Mo      1.6383900000    0.9459200000    7.5068200000      0.0006300000    0.0005450000    0.2390510000
Mo      4.9583600000    6.6962900000    7.5068200000      0.0005910000   -0.0000210000    0.2409160000
Mo      6.6183900000    3.8211300000    7.5068200000      0.0002910000    0.0001350000    0.2387120000
Mo      3.2984200000    3.8211700000    7.5068200000      0.0007280000   -0.0002680000   -0.2406410000
Mo      1.6384700000    6.6963800000    7.5068200000     -0.0006090000   -0.0005520000   -0.2385610000
Mo     -0.0215600000    9.5715500000    7.5068200000     -0.0002900000    0.0000790000   -0.2402230000
Se      4.9525100000    8.6097400000    9.1744200000     -0.0851150000   -0.0491950000   -0.0575240000
Se      3.2923300000   11.4849300000    5.8392200000      0.0852240000    0.0494400000   -0.0562570000
Se      3.2923800000   11.4849500000    9.1744300000     -0.0851210000   -0.0492850000   -0.0569980000
Se      1.6322000000    8.6094900000    9.1744700000      0.0847820000    0.0488930000    0.0566660000
Se      1.6321600000    8.6094500000    5.8391800000     -0.0846000000   -0.0487670000    0.0562350000
Se      6.6124500000    5.7344300000    9.1744300000     -0.0854770000   -0.0491800000   -0.0567770000
Se      6.6124100000    5.7343900000    5.8392200000      0.0850760000    0.0489440000   -0.0566940000
Se      4.9524600000    8.6097100000    5.8392700000      0.0854820000    0.0491810000   -0.0576620000
Se     -1.6876700000    8.6097300000    5.8392200000      0.0852400000    0.0494100000   -0.0567960000
Se     -1.6876200000    8.6097400000    9.1744300000     -0.0850250000   -0.0491210000   -0.0567870000
Se      4.9522100000    2.8591600000    5.8392300000     -0.0848370000   -0.0487470000    0.0574260000
Se      4.9522600000    2.8591900000    9.1744600000      0.0844140000    0.0488030000    0.0571500000
Se      3.2921300000    5.7343900000    9.1744700000      0.0844110000    0.0489170000    0.0568810000
Se      3.2920800000    5.7343800000    5.8391800000     -0.0847360000   -0.0490330000    0.0561910000
Se     -0.0275400000    5.7345100000    5.8392700000      0.0855370000    0.0491740000   -0.0571000000
Se     -0.0274900000    5.7345400000    9.1744200000     -0.0849680000   -0.0491970000   -0.0579380000
Se      6.6122000000   11.4846900000    9.1744700000      0.0847820000    0.0490190000    0.0561660000
Se      1.6324100000    2.8591900000    5.8392200000      0.0852070000    0.0489750000   -0.0567670000
Se      1.6324500000    2.8592200000    9.1744300000     -0.0853500000   -0.0493540000   -0.0565860000
Se      6.6121600000   11.4846600000    5.8391800000     -0.0847740000   -0.0484700000    0.0568490000
Se      8.2720800000    8.6095900000    5.8391800000     -0.0846280000   -0.0491150000    0.0563500000
Se      8.2721300000    8.6096000000    9.1744700000      0.0845110000    0.0487530000    0.0564870000
Se      4.9522600000   14.3600100000    9.1744600000      0.0842750000    0.0489940000    0.0577670000
Se      4.9522100000   14.3599800000    5.8392300000     -0.0850060000   -0.0489040000    0.0568670000
