CRYSTAL
PRIMVEC
   9.9600000000000009   5.7504086809999997   0.0000000000000000
  -4.9800000000000004   8.6256130219999996   0.0000000000000000
   0.0000000000000000   0.0000000000000000  15.0000000000000000
PRIMCOORD
 36   1
Mo      4.9584400000   12.4467500000    7.5068200000      0.0454640000    0.0265020000    0.0000260000
Mo      3.2983400000    9.5715300000    7.5068200000      0.0462270000    0.0257950000   -0.0002590000
Mo      8.2784200000    6.6963700000    7.5068200000      0.0450960000    0.0264870000    0.0000720000
Mo      6.6184700000    9.5715800000    7.5068200000      0.0443870000    0.0255010000    0.0002580000
Mo     -1.6816600000    6.6963300000    7.5068200000     -0.0454720000   -0.0260590000    0.0002110000
Mo     -0.0216400000    3.8210900000    7.5068200000     -0.0454770000   -0.0266900000    0.0003090000
Mo      1.6383900000    0.9459200000    7.5068200000     -0.0441420000   -0.0249920000    0.0000110000
Mo      4.9583600000    6.6962900000    7.5068200000      0.0455860000    0.0265550000   -0.0002030000
Mo      6.6183900000    3.8211300000    7.5068200000      0.0440350000    0.0258240000   -0.0000020000
Mo      3.2984200000    3.8211700000    7.5068200000     -0.0455550000   -0.0261420000   -0.0000700000
Mo      1.6384700000    6.6963800000    7.5068200000     -0.0442720000   -0.0263890000   -0.0003050000
Mo     -0.0215600000    9.5715500000    7.5068200000     -0.0455140000   -0.0263300000    0.0000230000
Se      4.9525100000    8.6097400000    9.1744200000     -0.1440860000   -0.0816180000    0.0428340000
Se      3.2923300000   11.4849300000    5.8392200000     -0.1436150000   -0.0786450000   -0.0376650000
Se      3.2923800000   11.4849500000    9.1744300000     -0.1433930000   -0.0780280000    0.0371410000
Se      1.6322000000    8.6094900000    9.1744700000     -0.0203670000   -0.0134730000   -0.2281650000
Se      1.6321600000    8.6094500000    5.8391800000     -0.0197240000   -0.0126780000    0.2281670000
Se      6.6124500000    5.7344300000    9.1744300000     -0.1374820000   -0.0865420000    0.0396260000
Se      6.6124100000    5.7343900000    5.8392200000     -0.1386170000   -0.0866730000   -0.0399160000
Se      4.9524600000    8.6097100000    5.8392700000     -0.1443900000   -0.0817560000   -0.0444730000
Se     -1.6876700000    8.6097300000    5.8392200000      0.1455710000    0.0788780000    0.0400050000
Se     -1.6876200000    8.6097400000    9.1744300000      0.1452130000    0.0783840000   -0.0392630000
Se      4.9522100000    2.8591600000    5.8392300000     -0.0138410000   -0.0090860000    0.2248590000
Se      4.9522600000    2.8591900000    9.1744600000     -0.0148960000   -0.0098370000   -0.2255910000
Se      3.2921300000    5.7343900000    9.1744700000     -0.0235170000   -0.0097640000   -0.2262430000
Se      3.2920800000    5.7343800000    5.8391800000     -0.0218260000   -0.0105070000    0.2257740000
Se     -0.0275400000    5.7345100000    5.8392700000      0.1450740000    0.0847530000    0.0437800000
Se     -0.0274900000    5.7345400000    9.1744200000      0.1443550000    0.0844200000   -0.0424080000
Se      6.6122000000   11.4846900000    9.1744700000      0.0180630000    0.0140360000    0.2266000000
Se      1.6324100000    2.8591900000    5.8392200000      0.1408860000    0.0863350000    0.0382200000
Se      1.6324500000    2.8592200000    9.1744300000      0.1405440000    0.0862970000   -0.0379470000
Se      6.6121600000   11.4846600000    5.8391800000      0.0175480000    0.0129060000   -0.2264970000
Se      8.2720800000    8.6095900000    5.8391800000      0.0200710000    0.0097900000   -0.2282220000
Se      8.2721300000    8.6096000000    9.1744700000      0.0211850000    0.0090580000    0.2283440000
Se      4.9522600000   14.3600100000    9.1744600000      0.0144180000    0.0070450000    0.2251220000
Se      4.9522100000   14.3599800000    5.8392300000      0.0127110000    0.0066510000   -0.2241570000
