CRYSTAL
PRIMVEC
   9.9600000000000009   5.7504086809999997   0.0000000000000000
  -4.9800000000000004   8.6256130219999996   0.0000000000000000
   0.0000000000000000   0.0000000000000000  15.0000000000000000
PRIMCOORD
 36   1
Mo      4.9584400000   12.4467500000    7.5068200000     -0.2037340000   -0.0078530000   -0.0001990000
Mo      3.2983400000    9.5715300000    7.5068200000      0.1311810000    0.1660270000    0.0001300000
Mo      8.2784200000    6.6963700000    7.5068200000      0.1279520000    0.1638920000    0.0002290000
Mo      6.6184700000    9.5715800000    7.5068200000      0.0776670000   -0.1579700000   -0.0002520000
Mo     -1.6816600000    6.6963300000    7.5068200000      0.1311070000    0.1660520000    0.0004000000
Mo     -0.0216400000    3.8210900000    7.5068200000     -0.2076200000   -0.0093620000   -0.0001250000
Mo      1.6383900000    0.9459200000    7.5068200000      0.0778850000   -0.1583900000   -0.0000720000
Mo      4.9583600000    6.6962900000    7.5068200000     -0.2074590000   -0.0092270000   -0.0001050000
Mo      6.6183900000    3.8211300000    7.5068200000      0.0777350000   -0.1586180000   -0.0001590000
Mo      3.2984200000    3.8211700000    7.5068200000      0.1279680000    0.1640090000    0.0001480000
Mo      1.6384700000    6.6963800000    7.5068200000      0.0776740000   -0.1580150000   -0.0000480000
Mo     -0.0215600000    9.5715500000    7.5068200000     -0.2041520000   -0.0080580000   -0.0000780000
Se      4.9525100000    8.6097400000    9.1744200000     -0.0080550000    0.0137290000   -0.0116300000
Se      3.2923300000   11.4849300000    5.8392200000      0.0074140000   -0.0050760000    0.1746170000
Se      3.2923800000   11.4849500000    9.1744300000      0.0069430000   -0.0050260000   -0.1752410000
Se      1.6322000000    8.6094900000    9.1744700000     -0.0018710000   -0.0082120000    0.1877760000
Se      1.6321600000    8.6094500000    5.8391800000     -0.0023070000   -0.0084960000   -0.1869760000
Se      6.6124500000    5.7344300000    9.1744300000     -0.0000100000   -0.0074620000    0.1871610000
Se      6.6124100000    5.7343900000    5.8392200000     -0.0004260000   -0.0078240000   -0.1863390000
Se      4.9524600000    8.6097100000    5.8392700000     -0.0077720000    0.0137620000    0.0117150000
Se     -1.6876700000    8.6097300000    5.8392200000      0.0075090000   -0.0050270000    0.1746390000
Se     -1.6876200000    8.6097400000    9.1744300000      0.0070540000   -0.0050490000   -0.1755550000
Se      4.9522100000    2.8591600000    5.8392300000     -0.0074390000    0.0135070000    0.0115980000
Se      4.9522600000    2.8591900000    9.1744600000     -0.0076900000    0.0135020000   -0.0116020000
Se      3.2921300000    5.7343900000    9.1744700000      0.0086560000   -0.0038700000   -0.1760120000
Se      3.2920800000    5.7343800000    5.8391800000      0.0091310000   -0.0039980000    0.1752720000
Se     -0.0275400000    5.7345100000    5.8392700000     -0.0079400000    0.0137820000    0.0114410000
Se     -0.0274900000    5.7345400000    9.1744200000     -0.0080830000    0.0138870000   -0.0116540000
Se      6.6122000000   11.4846900000    9.1744700000     -0.0019810000   -0.0081510000    0.1875750000
Se      1.6324100000    2.8591900000    5.8392200000     -0.0003890000   -0.0079040000   -0.1863670000
Se      1.6324500000    2.8592200000    9.1744300000      0.0000700000   -0.0076470000    0.1871830000
Se      6.6121600000   11.4846600000    5.8391800000     -0.0024370000   -0.0085500000   -0.1867570000
Se      8.2720800000    8.6095900000    5.8391800000      0.0090830000   -0.0038520000    0.1752950000
Se      8.2721300000    8.6096000000    9.1744700000      0.0085700000   -0.0038660000   -0.1759670000
Se      4.9522600000   14.3600100000    9.1744600000     -0.0076960000    0.0134070000   -0.0116190000
Se      4.9522100000   14.3599800000    5.8392300000     -0.0076370000    0.0133110000    0.0116030000
