CRYSTAL
PRIMVEC
   9.9600000000000009   5.7504086809999997   0.0000000000000000
  -4.9800000000000004   8.6256130219999996   0.0000000000000000
   0.0000000000000000   0.0000000000000000  15.0000000000000000
PRIMCOORD
 36   1
Mo      4.9584400000   12.4467500000    7.5068200000      0.0112890000   -0.2216540000   -0.0005360000
Mo      3.2983400000    9.5715300000    7.5068200000     -0.0685450000    0.3580570000    0.0000600000
Mo      8.2784200000    6.6963700000    7.5068200000      0.0178630000    0.0227030000    0.0015940000
Mo      6.6184700000    9.5715800000    7.5068200000     -0.0195120000    0.1869530000    0.0001630000
Mo     -1.6816600000    6.6963300000    7.5068200000      0.0699630000   -0.3609870000   -0.0008390000
Mo     -0.0216400000    3.8210900000    7.5068200000     -0.1940850000    0.2311810000   -0.0014320000
Mo      1.6383900000    0.9459200000    7.5068200000      0.1193250000    0.1167870000    0.0006620000
Mo      4.9583600000    6.6962900000    7.5068200000      0.1899150000   -0.2291850000    0.0005410000
Mo      6.6183900000    3.8211300000    7.5068200000     -0.1153220000   -0.1157640000   -0.0014830000
Mo      3.2984200000    3.8211700000    7.5068200000     -0.0171660000   -0.0278280000   -0.0008610000
Mo      1.6384700000    6.6963800000    7.5068200000      0.0212490000   -0.1843190000    0.0007420000
Mo     -0.0215600000    9.5715500000    7.5068200000     -0.0130850000    0.2223980000    0.0013690000
Se      4.9525100000    8.6097400000    9.1744200000      0.0155550000   -0.0188220000    0.1451480000
Se      3.2923300000   11.4849300000    5.8392200000      0.0396720000   -0.0533360000    0.1135270000
Se      3.2923800000   11.4849500000    9.1744300000      0.0398640000   -0.0537010000   -0.1132760000
Se      1.6322000000    8.6094900000    9.1744700000      0.0032260000   -0.0320650000    0.1161500000
Se      1.6321600000    8.6094500000    5.8391800000      0.0032690000   -0.0321520000   -0.1165660000
Se      6.6124500000    5.7344300000    9.1744300000     -0.0568730000    0.0687460000   -0.0350700000
Se      6.6124100000    5.7343900000    5.8392200000     -0.0572850000    0.0676310000    0.0350080000
Se      4.9524600000    8.6097100000    5.8392700000      0.0152600000   -0.0186760000   -0.1450130000
Se     -1.6876700000    8.6097300000    5.8392200000     -0.0404550000    0.0544550000   -0.1129800000
Se     -1.6876200000    8.6097400000    9.1744300000     -0.0400210000    0.0551540000    0.1131030000
Se      4.9522100000    2.8591600000    5.8392300000      0.0462770000   -0.0256010000    0.1050360000
Se      4.9522600000    2.8591900000    9.1744600000      0.0458900000   -0.0267370000   -0.1052970000
Se      3.2921300000    5.7343900000    9.1744700000     -0.0476600000    0.0511820000   -0.0068340000
Se      3.2920800000    5.7343800000    5.8391800000     -0.0476980000    0.0505110000    0.0066740000
Se     -0.0275400000    5.7345100000    5.8392700000     -0.0166550000    0.0178440000    0.1457590000
Se     -0.0274900000    5.7345400000    9.1744200000     -0.0165690000    0.0183730000   -0.1454970000
Se      6.6122000000   11.4846900000    9.1744700000     -0.0027000000    0.0310990000   -0.1167320000
Se      1.6324100000    2.8591900000    5.8392200000      0.0584680000   -0.0682180000   -0.0352340000
Se      1.6324500000    2.8592200000    9.1744300000      0.0585240000   -0.0690080000    0.0358060000
Se      6.6121600000   11.4846600000    5.8391800000     -0.0026330000    0.0315550000    0.1166170000
Se      8.2720800000    8.6095900000    5.8391800000      0.0484140000   -0.0487970000   -0.0075060000
Se      8.2721300000    8.6096000000    9.1744700000      0.0481370000   -0.0497840000    0.0073060000
Se      4.9522600000   14.3600100000    9.1744600000     -0.0480530000    0.0264670000    0.1051860000
Se      4.9522100000   14.3599800000    5.8392300000     -0.0480970000    0.0257010000   -0.1052960000
