CRYSTAL
PRIMVEC
   9.9600000000000009   5.7504086809999997   0.0000000000000000
  -4.9800000000000004   8.6256130219999996   0.0000000000000000
   0.0000000000000000   0.0000000000000000  15.0000000000000000
PRIMCOORD
 36   1
Mo      4.9584400000   12.4467500000    7.5068200000     -0.0001800000   -0.0001020000   -0.0106520000
Mo      3.2983400000    9.5715300000    7.5068200000      0.0000300000   -0.0000780000   -0.3337290000
Mo      8.2784200000    6.6963700000    7.5068200000     -0.0005390000   -0.0000670000   -0.0106180000
Mo      6.6184700000    9.5715800000    7.5068200000     -0.0001850000   -0.0001540000   -0.0106040000
Mo     -1.6816600000    6.6963300000    7.5068200000      0.0000570000    0.0001190000    0.3337190000
Mo     -0.0216400000    3.8210900000    7.5068200000      0.0002330000    0.0003630000    0.3337010000
Mo      1.6383900000    0.9459200000    7.5068200000      0.0004560000    0.0001340000    0.3345930000
Mo      4.9583600000    6.6962900000    7.5068200000      0.0003640000   -0.0002440000   -0.3337370000
Mo      6.6183900000    3.8211300000    7.5068200000     -0.0004160000   -0.0002670000   -0.3346900000
Mo      3.2984200000    3.8211700000    7.5068200000     -0.0001300000    0.0001610000    0.0106170000
Mo      1.6384700000    6.6963800000    7.5068200000      0.0001560000    0.0000600000    0.0106850000
Mo     -0.0215600000    9.5715500000    7.5068200000      0.0001320000    0.0000800000    0.0106730000
Se      4.9525100000    8.6097400000    9.1744200000      0.0387560000    0.0224090000    0.1399840000
Se      3.2923300000   11.4849300000    5.8392200000     -0.0387820000   -0.0222700000    0.1401640000
Se      3.2923800000   11.4849500000    9.1744300000      0.0389060000    0.0221640000    0.1403940000
Se      1.6322000000    8.6094900000    9.1744700000     -0.0396500000   -0.0229360000    0.0610740000
Se      1.6321600000    8.6094500000    5.8391800000      0.0395840000    0.0230130000    0.0611400000
Se      6.6124500000    5.7344300000    9.1744300000      0.0386710000    0.0227190000    0.1402510000
Se      6.6124100000    5.7343900000    5.8392200000     -0.0387150000   -0.0223760000    0.1403230000
Se      4.9524600000    8.6097100000    5.8392700000     -0.0386920000   -0.0222840000    0.1398700000
Se     -1.6876700000    8.6097300000    5.8392200000      0.0386840000    0.0222690000   -0.1401070000
Se     -1.6876200000    8.6097400000    9.1744300000     -0.0389200000   -0.0221700000   -0.1404270000
Se      4.9522100000    2.8591600000    5.8392300000      0.0400650000    0.0230140000    0.0613770000
Se      4.9522600000    2.8591900000    9.1744600000     -0.0397080000   -0.0229670000    0.0611670000
Se      3.2921300000    5.7343900000    9.1744700000     -0.0397430000   -0.0227760000    0.0610970000
Se      3.2920800000    5.7343800000    5.8391800000      0.0397020000    0.0227280000    0.0611460000
Se     -0.0275400000    5.7345100000    5.8392700000      0.0385870000    0.0222510000   -0.1398220000
Se     -0.0274900000    5.7345400000    9.1744200000     -0.0387420000   -0.0224210000   -0.1400490000
Se      6.6122000000   11.4846900000    9.1744700000      0.0396580000    0.0229480000   -0.0610840000
Se      1.6324100000    2.8591900000    5.8392200000      0.0386800000    0.0224620000   -0.1401430000
Se      1.6324500000    2.8592200000    9.1744300000     -0.0386390000   -0.0226080000   -0.1403380000
Se      6.6121600000   11.4846600000    5.8391800000     -0.0395520000   -0.0229720000   -0.0611910000
Se      8.2720800000    8.6095900000    5.8391800000     -0.0397460000   -0.0227880000   -0.0612580000
Se      8.2721300000    8.6096000000    9.1744700000      0.0396610000    0.0227200000   -0.0610380000
Se      4.9522600000   14.3600100000    9.1744600000      0.0398380000    0.0229120000   -0.0610030000
Se      4.9522100000   14.3599800000    5.8392300000     -0.0398590000   -0.0230500000   -0.0614760000
