CRYSTAL
PRIMVEC
   9.9600000000000009   5.7504086809999997   0.0000000000000000
  -4.9800000000000004   8.6256130219999996   0.0000000000000000
   0.0000000000000000   0.0000000000000000  15.0000000000000000
PRIMCOORD
 36   1
Mo      4.9584400000   12.4467500000    7.5068200000     -0.0000760000    0.0005380000   -0.2761540000
Mo      3.2983400000    9.5715300000    7.5068200000     -0.0002040000    0.0002040000   -0.3052210000
Mo      8.2784200000    6.6963700000    7.5068200000     -0.0004120000   -0.0003420000    0.3064150000
Mo      6.6184700000    9.5715800000    7.5068200000      0.0005260000   -0.0003680000   -0.0305010000
Mo     -1.6816600000    6.6963300000    7.5068200000     -0.0000610000    0.0001370000   -0.3052690000
Mo     -0.0216400000    3.8210900000    7.5068200000     -0.0002700000   -0.0002180000    0.2751660000
Mo      1.6383900000    0.9459200000    7.5068200000      0.0001360000    0.0002560000    0.0304120000
Mo      4.9583600000    6.6962900000    7.5068200000      0.0001320000   -0.0002800000    0.2751310000
Mo      6.6183900000    3.8211300000    7.5068200000      0.0001070000    0.0003020000    0.0303390000
Mo      3.2984200000    3.8211700000    7.5068200000      0.0000440000   -0.0003990000    0.3063840000
Mo      1.6384700000    6.6963800000    7.5068200000      0.0004620000   -0.0003160000   -0.0305010000
Mo     -0.0215600000    9.5715500000    7.5068200000     -0.0001110000    0.0004470000   -0.2762430000
Se      4.9525100000    8.6097400000    9.1744200000      0.0411930000   -0.0747600000    0.0126510000
Se      3.2923300000   11.4849300000    5.8392200000      0.0374050000   -0.0355410000    0.1120980000
Se      3.2923800000   11.4849500000    9.1744300000     -0.0373930000    0.0353110000    0.1122270000
Se      1.6322000000    8.6094900000    9.1744700000      0.0044850000   -0.0390280000    0.1248990000
Se      1.6321600000    8.6094500000    5.8391800000     -0.0045330000    0.0392260000    0.1241370000
Se      6.6124500000    5.7344300000    9.1744300000     -0.0038860000    0.0392020000   -0.1249990000
Se      6.6124100000    5.7343900000    5.8392200000      0.0041060000   -0.0392970000   -0.1240540000
Se      4.9524600000    8.6097100000    5.8392700000     -0.0412920000    0.0748270000    0.0119530000
Se     -1.6876700000    8.6097300000    5.8392200000      0.0374300000   -0.0355280000    0.1121380000
Se     -1.6876200000    8.6097400000    9.1744300000     -0.0374170000    0.0353390000    0.1121900000
Se      4.9522100000    2.8591600000    5.8392300000      0.0414260000   -0.0752200000   -0.0119980000
Se      4.9522600000    2.8591900000    9.1744600000     -0.0415520000    0.0749620000   -0.0125760000
Se      3.2921300000    5.7343900000    9.1744700000      0.0369670000   -0.0356400000   -0.1121800000
Se      3.2920800000    5.7343800000    5.8391800000     -0.0372190000    0.0360360000   -0.1120410000
Se     -0.0275400000    5.7345100000    5.8392700000     -0.0413240000    0.0748590000    0.0119970000
Se     -0.0274900000    5.7345400000    9.1744200000      0.0412220000   -0.0747520000    0.0126210000
Se      6.6122000000   11.4846900000    9.1744700000      0.0044740000   -0.0390200000    0.1248860000
Se      1.6324100000    2.8591900000    5.8392200000      0.0040390000   -0.0393450000   -0.1242420000
Se      1.6324500000    2.8592200000    9.1744300000     -0.0038630000    0.0391370000   -0.1248440000
Se      6.6121600000   11.4846600000    5.8391800000     -0.0044540000    0.0392240000    0.1241330000
Se      8.2720800000    8.6095900000    5.8391800000     -0.0372120000    0.0360510000   -0.1119900000
Se      8.2721300000    8.6096000000    9.1744700000      0.0370610000   -0.0356320000   -0.1122880000
Se      4.9522600000   14.3600100000    9.1744600000     -0.0414490000    0.0749010000   -0.0125590000
Se      4.9522100000   14.3599800000    5.8392300000      0.0415270000   -0.0752670000   -0.0121080000
