CRYSTAL
PRIMVEC
   9.9600000000000009   5.7504086809999997   0.0000000000000000
  -4.9800000000000004   8.6256130219999996   0.0000000000000000
   0.0000000000000000   0.0000000000000000  15.0000000000000000
PRIMCOORD
 36   1
Mo      4.9584400000   12.4467500000    7.5068200000      0.0000660000   -0.0000430000   -0.2280030000
Mo      3.2983400000    9.5715300000    7.5068200000     -0.0001580000    0.0000070000   -0.2275360000
Mo      8.2784200000    6.6963700000    7.5068200000     -0.0001950000    0.0000220000   -0.2280110000
Mo      6.6184700000    9.5715800000    7.5068200000     -0.0002180000   -0.0000540000   -0.2281950000
Mo     -1.6816600000    6.6963300000    7.5068200000     -0.0002010000    0.0000200000   -0.2275620000
Mo     -0.0216400000    3.8210900000    7.5068200000     -0.0001720000   -0.0000390000   -0.2275620000
Mo      1.6383900000    0.9459200000    7.5068200000     -0.0002700000   -0.0000750000   -0.2277190000
Mo      4.9583600000    6.6962900000    7.5068200000     -0.0001610000   -0.0000440000   -0.2275640000
Mo      6.6183900000    3.8211300000    7.5068200000     -0.0002710000   -0.0000690000   -0.2277130000
Mo      3.2984200000    3.8211700000    7.5068200000     -0.0002000000    0.0000120000   -0.2280050000
Mo      1.6384700000    6.6963800000    7.5068200000     -0.0002460000   -0.0000510000   -0.2281670000
Mo     -0.0215600000    9.5715500000    7.5068200000     -0.0001480000   -0.0000320000   -0.2280030000
Se      4.9525100000    8.6097400000    9.1744200000      0.0000230000    0.0000850000    0.1253340000
Se      3.2923300000   11.4849300000    5.8392200000     -0.0000400000   -0.0001160000    0.1251920000
Se      3.2923800000   11.4849500000    9.1744300000      0.0001650000    0.0000510000    0.1254910000
Se      1.6322000000    8.6094900000    9.1744700000      0.0003120000    0.0002420000    0.1255320000
Se      1.6321600000    8.6094500000    5.8391800000     -0.0002570000   -0.0001200000    0.1252900000
Se      6.6124500000    5.7344300000    9.1744300000      0.0001590000    0.0001420000    0.1254680000
Se      6.6124100000    5.7343900000    5.8392200000     -0.0000760000   -0.0000120000    0.1252230000
Se      4.9524600000    8.6097100000    5.8392700000      0.0000600000    0.0000020000    0.1251580000
Se     -1.6876700000    8.6097300000    5.8392200000     -0.0000080000   -0.0001120000    0.1252240000
Se     -1.6876200000    8.6097400000    9.1744300000      0.0001940000    0.0000600000    0.1254690000
Se      4.9522100000    2.8591600000    5.8392300000     -0.0000990000   -0.0000980000    0.1252320000
Se      4.9522600000    2.8591900000    9.1744600000      0.0003200000    0.0001830000    0.1253890000
Se      3.2921300000    5.7343900000    9.1744700000      0.0003720000    0.0001650000    0.1255330000
Se      3.2920800000    5.7343800000    5.8391800000     -0.0001870000   -0.0002070000    0.1252960000
Se     -0.0275400000    5.7345100000    5.8392700000      0.0000710000   -0.0000020000    0.1251570000
Se     -0.0274900000    5.7345400000    9.1744200000      0.0001410000    0.0000810000    0.1253370000
Se      6.6122000000   11.4846900000    9.1744700000      0.0002780000    0.0002590000    0.1255100000
Se      1.6324100000    2.8591900000    5.8392200000     -0.0000690000   -0.0000140000    0.1252220000
Se      1.6324500000    2.8592200000    9.1744300000      0.0001530000    0.0001440000    0.1254710000
Se      6.6121600000   11.4846600000    5.8391800000     -0.0002850000   -0.0001070000    0.1253270000
Se      8.2720800000    8.6095900000    5.8391800000     -0.0002040000   -0.0002060000    0.1253080000
Se      8.2721300000    8.6096000000    9.1744700000      0.0003730000    0.0001630000    0.1255300000
Se      4.9522600000   14.3600100000    9.1744600000      0.0003200000    0.0001830000    0.1253930000
Se      4.9522100000   14.3599800000    5.8392300000     -0.0001180000   -0.0000970000    0.1252340000
