CRYSTAL
PRIMVEC
   9.9600000000000009   5.7504086809999997   0.0000000000000000
  -4.9800000000000004   8.6256130219999996   0.0000000000000000
   0.0000000000000000   0.0000000000000000  15.0000000000000000
PRIMCOORD
 36   1
Mo      4.9584400000   12.4467500000    7.5068200000     -0.1603750000   -0.1527220000   -0.0002780000
Mo      3.2983400000    9.5715300000    7.5068200000     -0.2270890000   -0.0549530000   -0.0014680000
Mo      8.2784200000    6.6963700000    7.5068200000      0.2179240000    0.0565800000   -0.0002450000
Mo      6.6184700000    9.5715800000    7.5068200000     -0.1065120000    0.1767670000    0.0015160000
Mo     -1.6816600000    6.6963300000    7.5068200000     -0.2273920000   -0.0545370000   -0.0013920000
Mo     -0.0216400000    3.8210900000    7.5068200000      0.1622300000    0.1623980000    0.0001380000
Mo      1.6383900000    0.9459200000    7.5068200000      0.1137520000   -0.1902800000    0.0003230000
Mo      4.9583600000    6.6962900000    7.5068200000      0.1619980000    0.1616920000    0.0002930000
Mo      6.6183900000    3.8211300000    7.5068200000      0.1125190000   -0.1887210000    0.0001950000
Mo      3.2984200000    3.8211700000    7.5068200000      0.2178880000    0.0564220000   -0.0000590000
Mo      1.6384700000    6.6963800000    7.5068200000     -0.1055600000    0.1766700000    0.0013860000
Mo     -0.0215600000    9.5715500000    7.5068200000     -0.1595860000   -0.1531640000   -0.0006200000
Se      4.9525100000    8.6097400000    9.1744200000      0.0438150000   -0.0706180000    0.0008270000
Se      3.2923300000   11.4849300000    5.8392200000      0.0378380000    0.0935700000    0.1085250000
Se      3.2923800000   11.4849500000    9.1744300000      0.0374960000    0.0943470000   -0.1084260000
Se      1.6322000000    8.6094900000    9.1744700000      0.1037200000   -0.0119410000   -0.1050980000
Se      1.6321600000    8.6094500000    5.8391800000      0.1040210000   -0.0107540000    0.1048440000
Se      6.6124500000    5.7344300000    9.1744300000     -0.1022970000    0.0149300000    0.1072310000
Se      6.6124100000    5.7343900000    5.8392200000     -0.1022560000    0.0148690000   -0.1067150000
Se      4.9524600000    8.6097100000    5.8392700000      0.0427540000   -0.0704710000   -0.0010500000
Se     -1.6876700000    8.6097300000    5.8392200000      0.0373770000    0.0939090000    0.1089930000
Se     -1.6876200000    8.6097400000    9.1744300000      0.0368630000    0.0946140000   -0.1087590000
Se      4.9522100000    2.8591600000    5.8392300000     -0.0409300000    0.0672310000    0.0012540000
Se      4.9522600000    2.8591900000    9.1744600000     -0.0410040000    0.0675260000   -0.0010350000
Se      3.2921300000    5.7343900000    9.1744700000     -0.0413270000   -0.0930490000    0.1061600000
Se      3.2920800000    5.7343800000    5.8391800000     -0.0411960000   -0.0933070000   -0.1063810000
Se     -0.0275400000    5.7345100000    5.8392700000      0.0427310000   -0.0709150000   -0.0011950000
Se     -0.0274900000    5.7345400000    9.1744200000      0.0436280000   -0.0709970000    0.0010720000
Se      6.6122000000   11.4846900000    9.1744700000      0.1038980000   -0.0121500000   -0.1047940000
Se      1.6324100000    2.8591900000    5.8392200000     -0.1021170000    0.0153030000   -0.1071430000
Se      1.6324500000    2.8592200000    9.1744300000     -0.1022740000    0.0153160000    0.1075510000
Se      6.6121600000   11.4846600000    5.8391800000      0.1042110000   -0.0110230000    0.1043720000
Se      8.2720800000    8.6095900000    5.8391800000     -0.0410000000   -0.0936250000   -0.1066550000
Se      8.2721300000    8.6096000000    9.1744700000     -0.0412130000   -0.0932910000    0.1065790000
Se      4.9522600000   14.3600100000    9.1744600000     -0.0411400000    0.0674470000   -0.0010820000
Se      4.9522100000   14.3599800000    5.8392300000     -0.0412190000    0.0673310000    0.0011510000
