CRYSTAL
PRIMVEC
   9.9600000000000009   5.7504086809999997   0.0000000000000000
  -4.9800000000000004   8.6256130219999996   0.0000000000000000
   0.0000000000000000   0.0000000000000000  15.0000000000000000
PRIMCOORD
 36   1
Mo      4.9584400000   12.4467500000    7.5068200000     -0.0002940000    0.0000220000   -0.0147210000
Mo      3.2983400000    9.5715300000    7.5068200000      0.0003280000    0.0001000000    0.0120790000
Mo      8.2784200000    6.6963700000    7.5068200000     -0.0002330000   -0.0001840000   -0.0117560000
Mo      6.6184700000    9.5715800000    7.5068200000      0.0000320000   -0.0000990000    0.0269110000
Mo     -1.6816600000    6.6963300000    7.5068200000      0.0001870000    0.0001770000    0.0114920000
Mo     -0.0216400000    3.8210900000    7.5068200000      0.0001820000   -0.0000360000    0.0145720000
Mo      1.6383900000    0.9459200000    7.5068200000     -0.0000840000    0.0001130000   -0.0273170000
Mo      4.9583600000    6.6962900000    7.5068200000      0.0003050000    0.0000350000    0.0149770000
Mo      6.6183900000    3.8211300000    7.5068200000     -0.0000420000    0.0001860000   -0.0269310000
Mo      3.2984200000    3.8211700000    7.5068200000     -0.0001800000   -0.0001860000   -0.0117370000
Mo      1.6384700000    6.6963800000    7.5068200000      0.0000360000   -0.0001180000    0.0269920000
Mo     -0.0215600000    9.5715500000    7.5068200000     -0.0002960000   -0.0000160000   -0.0145660000
Se      4.9525100000    8.6097400000    9.1744200000      0.0164570000   -0.0073230000    0.1824930000
Se      3.2923300000   11.4849300000    5.8392200000     -0.0814880000    0.1700390000   -0.0900540000
Se      3.2923800000   11.4849500000    9.1744300000      0.0819780000   -0.1725440000   -0.0893680000
Se      1.6322000000    8.6094900000    9.1744700000      0.1127390000   -0.1686660000    0.0713610000
Se      1.6321600000    8.6094500000    5.8391800000     -0.1115270000    0.1684100000    0.0734470000
Se      6.6124500000    5.7344300000    9.1744300000     -0.1117260000    0.1697180000   -0.0697690000
Se      6.6124100000    5.7343900000    5.8392200000      0.1109700000   -0.1684120000   -0.0720160000
Se      4.9524600000    8.6097100000    5.8392700000     -0.0171860000    0.0079530000    0.1844290000
Se     -1.6876700000    8.6097300000    5.8392200000     -0.0828930000    0.1704430000   -0.0918240000
Se     -1.6876200000    8.6097400000    9.1744300000      0.0835580000   -0.1719630000   -0.0911490000
Se      4.9522100000    2.8591600000    5.8392300000      0.0157170000   -0.0070090000   -0.1838930000
Se      4.9522600000    2.8591900000    9.1744600000     -0.0157700000    0.0063560000   -0.1822900000
Se      3.2921300000    5.7343900000    9.1744700000     -0.0830400000    0.1722850000    0.0908660000
Se      3.2920800000    5.7343800000    5.8391800000      0.0825380000   -0.1710650000    0.0914420000
Se     -0.0275400000    5.7345100000    5.8392700000     -0.0186780000    0.0063990000    0.1837300000
Se     -0.0274900000    5.7345400000    9.1744200000      0.0180900000   -0.0062570000    0.1818540000
Se      6.6122000000   11.4846900000    9.1744700000      0.1107260000   -0.1693060000    0.0712160000
Se      1.6324100000    2.8591900000    5.8392200000      0.1095730000   -0.1695810000   -0.0740390000
Se      1.6324500000    2.8592200000    9.1744300000     -0.1102550000    0.1706420000   -0.0724960000
Se      6.6121600000   11.4846600000    5.8391800000     -0.1096840000    0.1684360000    0.0729520000
Se      8.2720800000    8.6095900000    5.8391800000      0.0846280000   -0.1696540000    0.0905400000
Se      8.2721300000    8.6096000000    9.1744700000     -0.0849370000    0.1711160000    0.0897860000
Se      4.9522600000   14.3600100000    9.1744600000     -0.0181780000    0.0054360000   -0.1824940000
Se      4.9522100000   14.3599800000    5.8392300000      0.0184150000   -0.0054510000   -0.1847170000
