CRYSTAL
PRIMVEC
   9.9600000000000009   5.7504086809999997   0.0000000000000000
  -4.9800000000000004   8.6256130219999996   0.0000000000000000
   0.0000000000000000   0.0000000000000000  15.0000000000000000
PRIMCOORD
 36   1
Mo      4.9584400000   12.4467500000    7.5068200000     -0.1214140000    0.1037350000   -0.0004420000
Mo      3.2983400000    9.5715300000    7.5068200000      0.3673740000    0.1946360000   -0.0002250000
Mo      8.2784200000    6.6963700000    7.5068200000      0.0533350000    0.0328100000    0.0000930000
Mo      6.6184700000    9.5715800000    7.5068200000      0.0682350000   -0.1355940000    0.0004000000
Mo     -1.6816600000    6.6963300000    7.5068200000     -0.3672230000   -0.1946580000   -0.0000730000
Mo     -0.0216400000    3.8210900000    7.5068200000      0.2064120000    0.0341060000   -0.0004240000
Mo      1.6383900000    0.9459200000    7.5068200000      0.1579220000    0.1607130000    0.0002170000
Mo      4.9583600000    6.6962900000    7.5068200000     -0.2067730000   -0.0338590000    0.0002290000
Mo      6.6183900000    3.8211300000    7.5068200000     -0.1580090000   -0.1610060000    0.0001540000
Mo      3.2984200000    3.8211700000    7.5068200000     -0.0536610000   -0.0328780000   -0.0001860000
Mo      1.6384700000    6.6963800000    7.5068200000     -0.0680380000    0.1359300000    0.0001240000
Mo     -0.0215600000    9.5715500000    7.5068200000      0.1215710000   -0.1039630000    0.0001080000
Se      4.9525100000    8.6097400000    9.1744200000     -0.0725420000    0.0479950000   -0.0679470000
Se      3.2923300000   11.4849300000    5.8392200000      0.0225760000   -0.0738320000    0.0659360000
Se      3.2923800000   11.4849500000    9.1744300000      0.0219890000   -0.0736660000   -0.0657690000
Se      1.6322000000    8.6094900000    9.1744700000     -0.1452990000   -0.0764810000    0.0381340000
Se      1.6321600000    8.6094500000    5.8391800000     -0.1452420000   -0.0763540000   -0.0380270000
Se      6.6124500000    5.7344300000    9.1744300000      0.0491700000    0.0263850000    0.1331750000
Se      6.6124100000    5.7343900000    5.8392200000      0.0488800000    0.0262100000   -0.1324580000
Se      4.9524600000    8.6097100000    5.8392700000     -0.0724850000    0.0481870000    0.0670470000
Se     -1.6876700000    8.6097300000    5.8392200000     -0.0225880000    0.0738670000   -0.0659450000
Se     -1.6876200000    8.6097400000    9.1744300000     -0.0223310000    0.0738590000    0.0659830000
Se      4.9522100000    2.8591600000    5.8392300000      0.0493210000    0.0778620000    0.0264060000
Se      4.9522600000    2.8591900000    9.1744600000      0.0496040000    0.0777410000   -0.0266610000
Se      3.2921300000    5.7343900000    9.1744700000      0.0957350000   -0.0013660000   -0.0104940000
Se      3.2920800000    5.7343800000    5.8391800000      0.0956800000   -0.0015890000    0.0106260000
Se     -0.0275400000    5.7345100000    5.8392700000      0.0725170000   -0.0483120000   -0.0670770000
Se     -0.0274900000    5.7345400000    9.1744200000      0.0727820000   -0.0479200000    0.0678620000
Se      6.6122000000   11.4846900000    9.1744700000      0.1452270000    0.0760180000   -0.0380490000
Se      1.6324100000    2.8591900000    5.8392200000     -0.0487970000   -0.0261270000    0.1323870000
Se      1.6324500000    2.8592200000    9.1744300000     -0.0489570000   -0.0265970000   -0.1331990000
Se      6.6121600000   11.4846600000    5.8391800000      0.1452660000    0.0763120000    0.0381550000
Se      8.2720800000    8.6095900000    5.8391800000     -0.0956540000    0.0015030000   -0.0106070000
Se      8.2721300000    8.6096000000    9.1744700000     -0.0959390000    0.0014410000    0.0103140000
Se      4.9522600000   14.3600100000    9.1744600000     -0.0493630000   -0.0773880000    0.0267310000
Se      4.9522100000   14.3599800000    5.8392300000     -0.0494110000   -0.0777210000   -0.0264860000
