CRYSTAL
PRIMVEC
   9.9600000000000009   5.7504086809999997   0.0000000000000000
  -4.9800000000000004   8.6256130219999996   0.0000000000000000
   0.0000000000000000   0.0000000000000000  15.0000000000000000
PRIMCOORD
 36   1
Mo      4.9584400000   12.4467500000    7.5068200000      0.0000420000   -0.0002640000    0.0242140000
Mo      3.2983400000    9.5715300000    7.5068200000      0.0002670000    0.0000180000    0.0358580000
Mo      8.2784200000    6.6963700000    7.5068200000     -0.0002110000    0.0000730000    0.0242960000
Mo      6.6184700000    9.5715800000    7.5068200000      0.0000960000    0.0000450000    0.0228400000
Mo     -1.6816600000    6.6963300000    7.5068200000     -0.0002930000    0.0000750000   -0.0358310000
Mo     -0.0216400000    3.8210900000    7.5068200000     -0.0001740000   -0.0001790000   -0.0359220000
Mo      1.6383900000    0.9459200000    7.5068200000     -0.0001440000   -0.0000600000   -0.0349050000
Mo      4.9583600000    6.6962900000    7.5068200000      0.0001720000    0.0000840000    0.0358610000
Mo      6.6183900000    3.8211300000    7.5068200000      0.0001210000    0.0000990000    0.0350970000
Mo      3.2984200000    3.8211700000    7.5068200000      0.0002870000   -0.0000620000   -0.0243360000
Mo      1.6384700000    6.6963800000    7.5068200000      0.0000070000   -0.0000620000   -0.0230260000
Mo     -0.0215600000    9.5715500000    7.5068200000     -0.0000880000    0.0002360000   -0.0241600000
Se      4.9525100000    8.6097400000    9.1744200000      0.0008250000    0.0003100000    0.1405030000
Se      3.2923300000   11.4849300000    5.8392200000     -0.0088690000   -0.0033620000    0.1433760000
Se      3.2923800000   11.4849500000    9.1744300000      0.0084440000    0.0033680000    0.1433740000
Se      1.6322000000    8.6094900000    9.1744700000      0.2121810000    0.1237850000   -0.0450370000
Se      1.6321600000    8.6094500000    5.8391800000     -0.2121740000   -0.1237910000   -0.0432810000
Se      6.6124500000    5.7344300000    9.1744300000      0.0064430000    0.0053150000    0.1406120000
Se      6.6124100000    5.7343900000    5.8392200000     -0.0074320000   -0.0052160000    0.1410620000
Se      4.9524600000    8.6097100000    5.8392700000     -0.0012480000   -0.0013630000    0.1409140000
Se     -1.6876700000    8.6097300000    5.8392200000      0.0097850000    0.0018350000   -0.1392120000
Se     -1.6876200000    8.6097400000    9.1744300000     -0.0083970000   -0.0023240000   -0.1390190000
Se      4.9522100000    2.8591600000    5.8392300000     -0.2118330000   -0.1229820000   -0.0508730000
Se      4.9522600000    2.8591900000    9.1744600000      0.2130730000    0.1232320000   -0.0511610000
Se      3.2921300000    5.7343900000    9.1744700000      0.2137200000    0.1224690000   -0.0426460000
Se      3.2920800000    5.7343800000    5.8391800000     -0.2128940000   -0.1216180000   -0.0413100000
Se     -0.0275400000    5.7345100000    5.8392700000      0.0019890000    0.0011210000   -0.1432890000
Se     -0.0274900000    5.7345400000    9.1744200000     -0.0017680000   -0.0004200000   -0.1439490000
Se      6.6122000000   11.4846900000    9.1744700000     -0.2132020000   -0.1218750000    0.0429650000
Se      1.6324100000    2.8591900000    5.8392200000      0.0057290000    0.0082840000   -0.1414450000
Se      1.6324500000    2.8592200000    9.1744300000     -0.0053350000   -0.0073130000   -0.1403470000
Se      6.6121600000   11.4846600000    5.8391800000      0.2129960000    0.1218760000    0.0420440000
Se      8.2720800000    8.6095900000    5.8391800000      0.2117430000    0.1225620000    0.0423910000
Se      8.2721300000    8.6096000000    9.1744700000     -0.2125470000   -0.1226600000    0.0435380000
Se      4.9522600000   14.3600100000    9.1744600000     -0.2129280000   -0.1239160000    0.0511530000
Se      4.9522100000   14.3599800000    5.8392300000      0.2117250000    0.1226730000    0.0496600000
