CRYSTAL
PRIMVEC
   9.9600000000000009   5.7504086809999997   0.0000000000000000
  -4.9800000000000004   8.6256130219999996   0.0000000000000000
   0.0000000000000000   0.0000000000000000  15.0000000000000000
PRIMCOORD
 36   1
Mo      4.9584400000   12.4467500000    7.5068200000     -0.0573390000   -0.0393140000    0.0008190000
Mo      3.2983400000    9.5715300000    7.5068200000      0.2723740000    0.1354490000   -0.0008360000
Mo      8.2784200000    6.6963700000    7.5068200000     -0.0602380000   -0.0365490000   -0.0006370000
Mo      6.6184700000    9.5715800000    7.5068200000     -0.0603070000   -0.0388380000    0.0003640000
Mo     -1.6816600000    6.6963300000    7.5068200000     -0.2710350000   -0.1349850000   -0.0008730000
Mo     -0.0216400000    3.8210900000    7.5068200000     -0.2672040000   -0.1407320000    0.0014930000
Mo      1.6383900000    0.9459200000    7.5068200000     -0.2754070000   -0.1435840000   -0.0000930000
Mo      4.9583600000    6.6962900000    7.5068200000      0.2676630000    0.1440940000    0.0009230000
Mo      6.6183900000    3.8211300000    7.5068200000      0.2737360000    0.1395930000   -0.0007680000
Mo      3.2984200000    3.8211700000    7.5068200000      0.0562260000    0.0386740000   -0.0013450000
Mo      1.6384700000    6.6963800000    7.5068200000      0.0618020000    0.0401880000   -0.0005760000
Mo     -0.0215600000    9.5715500000    7.5068200000      0.0591980000    0.0377580000    0.0015420000
Se      4.9525100000    8.6097400000    9.1744200000     -0.0672750000   -0.0308150000   -0.1230360000
Se      3.2923300000   11.4849300000    5.8392200000     -0.0687640000   -0.0289770000    0.1201420000
Se      3.2923800000   11.4849500000    9.1744300000     -0.0683070000   -0.0285180000   -0.1197960000
Se      1.6322000000    8.6094900000    9.1744700000     -0.0851790000   -0.0489210000    0.0670960000
Se      1.6321600000    8.6094500000    5.8391800000     -0.0843230000   -0.0493870000   -0.0670570000
Se      6.6124500000    5.7344300000    9.1744300000     -0.0666740000   -0.0311510000   -0.1192050000
Se      6.6124100000    5.7343900000    5.8392200000     -0.0659290000   -0.0313840000    0.1194970000
Se      4.9524600000    8.6097100000    5.8392700000     -0.0674140000   -0.0302620000    0.1227870000
Se     -1.6876700000    8.6097300000    5.8392200000      0.0677780000    0.0286420000   -0.1200730000
Se     -1.6876200000    8.6097400000    9.1744300000      0.0683650000    0.0291470000    0.1198400000
Se      4.9522100000    2.8591600000    5.8392300000     -0.0850140000   -0.0490110000   -0.0694130000
Se      4.9522600000    2.8591900000    9.1744600000     -0.0847450000   -0.0500610000    0.0696630000
Se      3.2921300000    5.7343900000    9.1744700000     -0.0843540000   -0.0490240000    0.0675690000
Se      3.2920800000    5.7343800000    5.8391800000     -0.0849330000   -0.0495610000   -0.0670960000
Se     -0.0275400000    5.7345100000    5.8392700000      0.0664040000    0.0297750000   -0.1223380000
Se     -0.0274900000    5.7345400000    9.1744200000      0.0667280000    0.0289510000    0.1223100000
Se      6.6122000000   11.4846900000    9.1744700000      0.0835950000    0.0490500000   -0.0678120000
Se      1.6324100000    2.8591900000    5.8392200000      0.0677200000    0.0321010000   -0.1200930000
Se      1.6324500000    2.8592200000    9.1744300000      0.0667350000    0.0323490000    0.1200660000
Se      6.6121600000   11.4846600000    5.8391800000      0.0842130000    0.0492140000    0.0675920000
Se      8.2720800000    8.6095900000    5.8391800000      0.0841950000    0.0476570000    0.0671460000
Se      8.2721300000    8.6096000000    9.1744700000      0.0845490000    0.0483000000   -0.0678400000
Se      4.9522600000   14.3600100000    9.1744600000      0.0864840000    0.0497200000   -0.0688570000
Se      4.9522100000   14.3599800000    5.8392300000      0.0864930000    0.0502280000    0.0688950000
