CRYSTAL
PRIMVEC
   9.9600000000000009   5.7504086809999997   0.0000000000000000
  -4.9800000000000004   8.6256130219999996   0.0000000000000000
   0.0000000000000000   0.0000000000000000  15.0000000000000000
PRIMCOORD
 36   1
Mo      4.9584400000   12.4467500000    7.5068200000     -0.0043230000    0.0353060000    0.0000390000
Mo      3.2983400000    9.5715300000    7.5068200000     -0.0077970000    0.0241080000    0.0000990000
Mo      8.2784200000    6.6963700000    7.5068200000      0.0300540000   -0.0337230000    0.0002550000
Mo      6.6184700000    9.5715800000    7.5068200000     -0.0292540000   -0.0018200000   -0.0004090000
Mo     -1.6816600000    6.6963300000    7.5068200000      0.0080320000   -0.0245530000   -0.0000950000
Mo     -0.0216400000    3.8210900000    7.5068200000      0.0215790000    0.0187080000   -0.0003360000
Mo      1.6383900000    0.9459200000    7.5068200000     -0.0337610000    0.0029290000   -0.0001120000
Mo      4.9583600000    6.6962900000    7.5068200000     -0.0216930000   -0.0189690000    0.0000310000
Mo      6.6183900000    3.8211300000    7.5068200000      0.0334770000   -0.0027310000   -0.0000660000
Mo      3.2984200000    3.8211700000    7.5068200000     -0.0301390000    0.0339880000   -0.0000880000
Mo      1.6384700000    6.6963800000    7.5068200000      0.0295020000    0.0018280000    0.0006680000
Mo     -0.0215600000    9.5715500000    7.5068200000      0.0043200000   -0.0350870000   -0.0000610000
Se      4.9525100000    8.6097400000    9.1744200000      0.2053220000    0.0682010000    0.0270020000
Se      3.2923300000   11.4849300000    5.8392200000     -0.2023460000   -0.0291860000   -0.0232030000
Se      3.2923800000   11.4849500000    9.1744300000     -0.1995580000   -0.0293110000    0.0227220000
Se      1.6322000000    8.6094900000    9.1744700000     -0.1818220000    0.2003330000    0.0142620000
Se      1.6321600000    8.6094500000    5.8391800000     -0.1827110000    0.2039230000   -0.0181930000
Se      6.6124500000    5.7344300000    9.1744300000     -0.0087440000   -0.0404450000   -0.0369290000
Se      6.6124100000    5.7343900000    5.8392200000     -0.0051000000   -0.0419830000    0.0351500000
Se      4.9524600000    8.6097100000    5.8392700000      0.2051570000    0.0699740000   -0.0240000000
Se     -1.6876700000    8.6097300000    5.8392200000      0.2005250000    0.0285120000    0.0247290000
Se     -1.6876200000    8.6097400000    9.1744300000      0.1977810000    0.0280970000   -0.0233990000
Se      4.9522100000    2.8591600000    5.8392300000      0.0773970000   -0.0928180000    0.1522040000
Se      4.9522600000    2.8591900000    9.1744600000      0.0716770000   -0.0906290000   -0.1571520000
Se      3.2921300000    5.7343900000    9.1744700000      0.1058290000   -0.1130540000    0.1418930000
Se      3.2920800000    5.7343800000    5.8391800000      0.0999510000   -0.1138740000   -0.1330740000
Se     -0.0275400000    5.7345100000    5.8392700000     -0.2061170000   -0.0699170000    0.0237700000
Se     -0.0274900000    5.7345400000    9.1744200000     -0.2067770000   -0.0668880000   -0.0265680000
Se      6.6122000000   11.4846900000    9.1744700000      0.1824340000   -0.1998540000   -0.0152760000
Se      1.6324100000    2.8591900000    5.8392200000      0.0051350000    0.0404330000   -0.0356650000
Se      1.6324500000    2.8592200000    9.1744300000      0.0079360000    0.0383350000    0.0378680000
Se      6.6121600000   11.4846600000    5.8391800000      0.1844570000   -0.2027920000    0.0187330000
Se      8.2720800000    8.6095900000    5.8391800000     -0.1008680000    0.1148980000    0.1317260000
Se      8.2721300000    8.6096000000    9.1744700000     -0.1042690000    0.1136920000   -0.1410050000
Se      4.9522600000   14.3600100000    9.1744600000     -0.0691210000    0.0914790000    0.1565360000
Se      4.9522100000   14.3599800000    5.8392300000     -0.0759130000    0.0928750000   -0.1520590000
