CRYSTAL
PRIMVEC
   9.9600000000000009   5.7504086809999997   0.0000000000000000
  -4.9800000000000004   8.6256130219999996   0.0000000000000000
   0.0000000000000000   0.0000000000000000  15.0000000000000000
PRIMCOORD
 36   1
Mo      4.9584400000   12.4467500000    7.5068200000      0.0001240000   -0.0002990000    0.0052030000
Mo      3.2983400000    9.5715300000    7.5068200000      0.0002260000    0.0002640000    0.0045770000
Mo      8.2784200000    6.6963700000    7.5068200000      0.0001350000   -0.0003740000   -0.0057830000
Mo      6.6184700000    9.5715800000    7.5068200000     -0.0004100000    0.0006130000    0.0004170000
Mo     -1.6816600000    6.6963300000    7.5068200000     -0.0002470000   -0.0002880000   -0.0044970000
Mo     -0.0216400000    3.8210900000    7.5068200000      0.0003470000    0.0000690000    0.0053040000
Mo      1.6383900000    0.9459200000    7.5068200000     -0.0001400000    0.0002040000   -0.0007580000
Mo      4.9583600000    6.6962900000    7.5068200000     -0.0004480000   -0.0000810000   -0.0051630000
Mo      6.6183900000    3.8211300000    7.5068200000      0.0001610000   -0.0002540000    0.0006960000
Mo      3.2984200000    3.8211700000    7.5068200000     -0.0000590000    0.0003930000    0.0057390000
Mo      1.6384700000    6.6963800000    7.5068200000      0.0004870000   -0.0005660000   -0.0004190000
Mo     -0.0215600000    9.5715500000    7.5068200000     -0.0001250000    0.0003190000   -0.0053470000
Se      4.9525100000    8.6097400000    9.1744200000      0.1049670000   -0.1736700000   -0.0008350000
Se      3.2923300000   11.4849300000    5.8392200000     -0.0326430000    0.1478960000    0.0133300000
Se      3.2923800000   11.4849500000    9.1744300000      0.0327930000   -0.1481140000    0.0138520000
Se      1.6322000000    8.6094900000    9.1744700000      0.1572210000   -0.1947420000   -0.0061900000
Se      1.6321600000    8.6094500000    5.8391800000     -0.1567550000    0.1941950000   -0.0051560000
Se      6.6124500000    5.7344300000    9.1744300000      0.1119190000   -0.1118170000   -0.0127490000
Se      6.6124100000    5.7343900000    5.8392200000     -0.1124180000    0.1115300000   -0.0123380000
Se      4.9524600000    8.6097100000    5.8392700000     -0.1054250000    0.1736280000   -0.0005700000
Se     -1.6876700000    8.6097300000    5.8392200000      0.0334830000   -0.1477710000   -0.0134800000
Se     -1.6876200000    8.6097400000    9.1744300000     -0.0335910000    0.1478080000   -0.0138380000
Se      4.9522100000    2.8591600000    5.8392300000     -0.0926460000    0.1760520000    0.0014350000
Se      4.9522600000    2.8591900000    9.1744600000      0.0925240000   -0.1753750000    0.0015960000
Se      3.2921300000    5.7343900000    9.1744700000      0.0933860000   -0.2230090000    0.0045240000
Se      3.2920800000    5.7343800000    5.8391800000     -0.0932540000    0.2230000000    0.0039990000
Se     -0.0275400000    5.7345100000    5.8392700000      0.1047710000   -0.1744050000    0.0008910000
Se     -0.0274900000    5.7345400000    9.1744200000     -0.1042110000    0.1744640000    0.0007260000
Se      6.6122000000   11.4846900000    9.1744700000     -0.1573150000    0.1948070000    0.0062350000
Se      1.6324100000    2.8591900000    5.8392200000      0.1119760000   -0.1112320000    0.0122880000
Se      1.6324500000    2.8592200000    9.1744300000     -0.1118130000    0.1115660000    0.0127380000
Se      6.6121600000   11.4846600000    5.8391800000      0.1568650000   -0.1944150000    0.0052710000
Se      8.2720800000    8.6095900000    5.8391800000      0.0922420000   -0.2231700000   -0.0040370000
Se      8.2721300000    8.6096000000    9.1744700000     -0.0925080000    0.2234770000   -0.0047290000
Se      4.9522600000   14.3600100000    9.1744600000     -0.0930460000    0.1745680000   -0.0013310000
Se      4.9522100000   14.3599800000    5.8392300000      0.0934800000   -0.1752740000   -0.0016000000
