CRYSTAL
PRIMVEC
   9.9600000000000009   5.7504086809999997   0.0000000000000000
  -4.9800000000000004   8.6256130219999996   0.0000000000000000
   0.0000000000000000   0.0000000000000000  15.0000000000000000
PRIMCOORD
 36   1
Mo      4.9584400000   12.4467500000    7.5068200000     -0.0004380000    0.0003740000    0.1219540000
Mo      3.2983400000    9.5715300000    7.5068200000     -0.0000870000    0.0004560000   -0.1062440000
Mo      8.2784200000    6.6963700000    7.5068200000     -0.0003070000    0.0002150000    0.1063730000
Mo      6.6184700000    9.5715800000    7.5068200000      0.0004210000    0.0004980000   -0.2270290000
Mo     -1.6816600000    6.6963300000    7.5068200000      0.0004780000   -0.0000550000   -0.1071920000
Mo     -0.0216400000    3.8210900000    7.5068200000      0.0003260000   -0.0003600000   -0.1230180000
Mo      1.6383900000    0.9459200000    7.5068200000     -0.0004650000   -0.0003610000    0.2269050000
Mo      4.9583600000    6.6962900000    7.5068200000     -0.0000850000    0.0001410000   -0.1218030000
Mo      6.6183900000    3.8211300000    7.5068200000     -0.0008250000    0.0002640000    0.2282410000
Mo      3.2984200000    3.8211700000    7.5068200000     -0.0000790000   -0.0006370000    0.1064450000
Mo      1.6384700000    6.6963800000    7.5068200000      0.0009560000   -0.0003150000   -0.2267720000
Mo     -0.0215600000    9.5715500000    7.5068200000      0.0003420000   -0.0002150000    0.1220980000
Se      4.9525100000    8.6097400000    9.1744200000      0.0442080000    0.0190620000   -0.1796400000
Se      3.2923300000   11.4849300000    5.8392200000     -0.0421780000    0.1239020000    0.0965820000
Se      3.2923800000   11.4849500000    9.1744300000      0.0405310000   -0.1226220000    0.0960110000
Se      1.6322000000    8.6094900000    9.1744700000      0.0870930000   -0.1037410000   -0.0829490000
Se      1.6321600000    8.6094500000    5.8391800000     -0.0862120000    0.1035530000   -0.0835450000
Se      6.6124500000    5.7344300000    9.1744300000     -0.0867020000    0.1044420000    0.0837260000
Se      6.6124100000    5.7343900000    5.8392200000      0.0860400000   -0.1040920000    0.0842320000
Se      4.9524600000    8.6097100000    5.8392700000     -0.0435230000   -0.0180790000   -0.1798340000
Se     -1.6876700000    8.6097300000    5.8392200000     -0.0409490000    0.1235020000    0.0958180000
Se     -1.6876200000    8.6097400000    9.1744300000      0.0406880000   -0.1233580000    0.0951130000
Se      4.9522100000    2.8591600000    5.8392300000      0.0443790000    0.0186550000    0.1805260000
Se      4.9522600000    2.8591900000    9.1744600000     -0.0450850000   -0.0193840000    0.1801590000
Se      3.2921300000    5.7343900000    9.1744700000     -0.0397600000    0.1224000000   -0.0951960000
Se      3.2920800000    5.7343800000    5.8391800000      0.0411740000   -0.1239170000   -0.0958950000
Se     -0.0275400000    5.7345100000    5.8392700000     -0.0426740000   -0.0184740000   -0.1806070000
Se     -0.0274900000    5.7345400000    9.1744200000      0.0442960000    0.0179750000   -0.1802320000
Se      6.6122000000   11.4846900000    9.1744700000      0.0868530000   -0.1029000000   -0.0834140000
Se      1.6324100000    2.8591900000    5.8392200000      0.0866920000   -0.1045840000    0.0832040000
Se      1.6324500000    2.8592200000    9.1744300000     -0.0867670000    0.1033090000    0.0826960000
Se      6.6121600000   11.4846600000    5.8391800000     -0.0868140000    0.1040630000   -0.0839730000
Se      8.2720800000    8.6095900000    5.8391800000      0.0404360000   -0.1234490000   -0.0964370000
Se      8.2721300000    8.6096000000    9.1744700000     -0.0399410000    0.1234850000   -0.0959010000
Se      4.9522600000   14.3600100000    9.1744600000     -0.0451170000   -0.0186210000    0.1796220000
Se      4.9522100000   14.3599800000    5.8392300000      0.0436440000    0.0188790000    0.1799060000
