CRYSTAL
PRIMVEC
   9.9600000000000009   5.7504086809999997   0.0000000000000000
  -4.9800000000000004   8.6256130219999996   0.0000000000000000
   0.0000000000000000   0.0000000000000000  15.0000000000000000
PRIMCOORD
 36   1
Mo      4.9584400000   12.4467500000    7.5068200000      0.1213000000   -0.1975020000   -0.0003630000
Mo      3.2983400000    9.5715300000    7.5068200000      0.1124250000   -0.1947950000   -0.0001160000
Mo      8.2784200000    6.6963700000    7.5068200000      0.1059960000   -0.2010960000   -0.0000310000
Mo      6.6184700000    9.5715800000    7.5068200000      0.1174380000   -0.1966300000    0.0001710000
Mo     -1.6816600000    6.6963300000    7.5068200000      0.1125910000   -0.1954570000   -0.0000590000
Mo     -0.0216400000    3.8210900000    7.5068200000      0.1107310000   -0.1894370000   -0.0003750000
Mo      1.6383900000    0.9459200000    7.5068200000      0.1139220000   -0.2048840000    0.0000770000
Mo      4.9583600000    6.6962900000    7.5068200000      0.1110280000   -0.1883240000   -0.0003120000
Mo      6.6183900000    3.8211300000    7.5068200000      0.1150780000   -0.2042570000    0.0000680000
Mo      3.2984200000    3.8211700000    7.5068200000      0.1040480000   -0.2004400000   -0.0000230000
Mo      1.6384700000    6.6963800000    7.5068200000      0.1146980000   -0.1969290000    0.0000280000
Mo     -0.0215600000    9.5715500000    7.5068200000      0.1205070000   -0.1996710000   -0.0000940000
Se      4.9525100000    8.6097400000    9.1744200000     -0.0626330000    0.1052560000   -0.0006380000
Se      3.2923300000   11.4849300000    5.8392200000     -0.0655110000    0.1079510000   -0.0000860000
Se      3.2923800000   11.4849500000    9.1744300000     -0.0656900000    0.1079430000   -0.0000170000
Se      1.6322000000    8.6094900000    9.1744700000     -0.0636340000    0.1097510000   -0.0016620000
Se      1.6321600000    8.6094500000    5.8391800000     -0.0636390000    0.1097810000    0.0017410000
Se      6.6124500000    5.7344300000    9.1744300000     -0.0586470000    0.1105140000    0.0017230000
Se      6.6124100000    5.7343900000    5.8392200000     -0.0587670000    0.1105800000   -0.0015820000
Se      4.9524600000    8.6097100000    5.8392700000     -0.0627360000    0.1051860000    0.0006120000
Se     -1.6876700000    8.6097300000    5.8392200000     -0.0650700000    0.1084690000   -0.0000540000
Se     -1.6876200000    8.6097400000    9.1744300000     -0.0651510000    0.1085000000   -0.0001930000
Se      4.9522100000    2.8591600000    5.8392300000     -0.0610510000    0.1096890000   -0.0022330000
Se      4.9522600000    2.8591900000    9.1744600000     -0.0609740000    0.1096640000    0.0021250000
Se      3.2921300000    5.7343900000    9.1744700000     -0.0629460000    0.1085110000    0.0014830000
Se      3.2920800000    5.7343800000    5.8391800000     -0.0627780000    0.1085600000   -0.0016220000
Se     -0.0275400000    5.7345100000    5.8392700000     -0.0621090000    0.1058320000    0.0011680000
Se     -0.0274900000    5.7345400000    9.1744200000     -0.0620480000    0.1059100000   -0.0011320000
Se      6.6122000000   11.4846900000    9.1744700000     -0.0639140000    0.1094200000   -0.0018120000
Se      1.6324100000    2.8591900000    5.8392200000     -0.0583380000    0.1109380000   -0.0012820000
Se      1.6324500000    2.8592200000    9.1744300000     -0.0581930000    0.1108420000    0.0014460000
Se      6.6121600000   11.4846600000    5.8391800000     -0.0640400000    0.1095650000    0.0019330000
Se      8.2720800000    8.6095900000    5.8391800000     -0.0634380000    0.1090790000   -0.0008450000
Se      8.2721300000    8.6096000000    9.1744700000     -0.0636540000    0.1090650000    0.0006760000
Se      4.9522600000   14.3600100000    9.1744600000     -0.0612680000    0.1095220000    0.0005660000
Se      4.9522100000   14.3599800000    5.8392300000     -0.0613220000    0.1094380000   -0.0005750000
