CRYSTAL
PRIMVEC
   9.9600000000000009   5.7504086809999997   0.0000000000000000
  -4.9800000000000004   8.6256130219999996   0.0000000000000000
   0.0000000000000000   0.0000000000000000  15.0000000000000000
PRIMCOORD
 36   1
Mo      4.9584400000   12.4467500000    7.5068200000     -0.0025770000   -0.0003650000   -0.1029940000
Mo      3.2983400000    9.5715300000    7.5068200000      0.0015800000   -0.0000210000    0.0936580000
Mo      8.2784200000    6.6963700000    7.5068200000     -0.0014200000   -0.0021880000   -0.0685520000
Mo      6.6184700000    9.5715800000    7.5068200000      0.0020810000    0.0013770000    0.1733900000
Mo     -1.6816600000    6.6963300000    7.5068200000     -0.0014740000    0.0003000000   -0.0937780000
Mo     -0.0216400000    3.8210900000    7.5068200000     -0.0001740000   -0.0017350000   -0.1666310000
Mo      1.6383900000    0.9459200000    7.5068200000      0.0011510000    0.0009780000    0.2616140000
Mo      4.9583600000    6.6962900000    7.5068200000      0.0008540000    0.0018750000    0.1666490000
Mo      6.6183900000    3.8211300000    7.5068200000     -0.0020690000   -0.0015360000   -0.2614970000
Mo      3.2984200000    3.8211700000    7.5068200000      0.0012260000    0.0014450000    0.0686010000
Mo      1.6384700000    6.6963800000    7.5068200000     -0.0015550000   -0.0006520000   -0.1735570000
Mo     -0.0215600000    9.5715500000    7.5068200000      0.0023390000    0.0005210000    0.1030960000
Se      4.9525100000    8.6097400000    9.1744200000     -0.0069900000    0.0280210000    0.2173430000
Se      3.2923300000   11.4849300000    5.8392200000      0.0695480000   -0.1131190000   -0.1367930000
Se      3.2923800000   11.4849500000    9.1744300000     -0.0732860000    0.1108510000   -0.1350000000
Se      1.6322000000    8.6094900000    9.1744700000      0.0110220000   -0.1253710000    0.0103810000
Se      1.6321600000    8.6094500000    5.8391800000     -0.0072470000    0.1240520000    0.0103870000
Se      6.6124500000    5.7344300000    9.1744300000      0.0796140000   -0.1397350000   -0.0814290000
Se      6.6124100000    5.7343900000    5.8392200000     -0.0826940000    0.1368340000   -0.0824990000
Se      4.9524600000    8.6097100000    5.8392700000      0.0121030000   -0.0238230000    0.2181200000
Se     -1.6876700000    8.6097300000    5.8392200000     -0.0696410000    0.1133430000    0.1368900000
Se     -1.6876200000    8.6097400000    9.1744300000      0.0727560000   -0.1109060000    0.1349170000
Se      4.9522100000    2.8591600000    5.8392300000     -0.1206790000   -0.0862970000   -0.0420990000
Se      4.9522600000    2.8591900000    9.1744600000      0.1189930000    0.0850060000   -0.0409630000
Se      3.2921300000    5.7343900000    9.1744700000     -0.1283850000    0.0409900000    0.0288160000
Se      3.2920800000    5.7343800000    5.8391800000      0.1288140000   -0.0364670000    0.0288460000
Se     -0.0275400000    5.7345100000    5.8392700000     -0.0114600000    0.0242610000   -0.2181020000
Se     -0.0274900000    5.7345400000    9.1744200000      0.0074210000   -0.0274460000   -0.2175890000
Se      6.6122000000   11.4846900000    9.1744700000     -0.0110830000    0.1258760000   -0.0103020000
Se      1.6324100000    2.8591900000    5.8392200000      0.0825300000   -0.1375510000    0.0824320000
Se      1.6324500000    2.8592200000    9.1744300000     -0.0797970000    0.1391030000    0.0815780000
Se      6.6121600000   11.4846600000    5.8391800000      0.0074660000   -0.1233460000   -0.0106230000
Se      8.2720800000    8.6095900000    5.8391800000     -0.1281620000    0.0362980000   -0.0284640000
Se      8.2721300000    8.6096000000    9.1744700000      0.1287000000   -0.0410040000   -0.0292190000
Se      4.9522600000   14.3600100000    9.1744600000     -0.1198510000   -0.0854370000    0.0414690000
Se      4.9522100000   14.3599800000    5.8392300000      0.1202220000    0.0858650000    0.0419110000
