CRYSTAL
PRIMVEC
   9.9600000000000009   5.7504086809999997   0.0000000000000000
  -4.9800000000000004   8.6256130219999996   0.0000000000000000
   0.0000000000000000   0.0000000000000000  15.0000000000000000
PRIMCOORD
 36   1
Mo      4.9584400000   12.4467500000    7.5068200000      0.1678370000   -0.2999940000    0.0005520000
Mo      3.2983400000    9.5715300000    7.5068200000      0.0019900000    0.0061860000   -0.0002170000
Mo      8.2784200000    6.6963700000    7.5068200000      0.1358340000   -0.2980850000    0.0000750000
Mo      6.6184700000    9.5715800000    7.5068200000      0.1595250000   -0.2879740000   -0.0004270000
Mo     -1.6816600000    6.6963300000    7.5068200000      0.0310750000    0.0130500000    0.0006090000
Mo     -0.0216400000    3.8210900000    7.5068200000     -0.0147840000    0.0061350000   -0.0000640000
Mo      1.6383900000    0.9459200000    7.5068200000     -0.0002000000   -0.0030360000   -0.0006160000
Mo      4.9583600000    6.6962900000    7.5068200000     -0.0174660000    0.0127680000    0.0003950000
Mo      6.6183900000    3.8211300000    7.5068200000     -0.0000450000   -0.0304350000   -0.0001940000
Mo      3.2984200000    3.8211700000    7.5068200000     -0.1597780000    0.2825790000    0.0007230000
Mo      1.6384700000    6.6963800000    7.5068200000     -0.1681870000    0.3322150000   -0.0003540000
Mo     -0.0215600000    9.5715500000    7.5068200000     -0.1380530000    0.2712820000   -0.0003210000
Se      4.9525100000    8.6097400000    9.1744200000     -0.0148900000    0.0272800000   -0.0046740000
Se      3.2923300000   11.4849300000    5.8392200000     -0.0193750000    0.0331980000    0.0069580000
Se      3.2923800000   11.4849500000    9.1744300000     -0.0191350000    0.0333930000   -0.0071370000
Se      1.6322000000    8.6094900000    9.1744700000      0.0710350000   -0.1473520000   -0.0208060000
Se      1.6321600000    8.6094500000    5.8391800000      0.0710720000   -0.1472940000    0.0210470000
Se      6.6124500000    5.7344300000    9.1744300000     -0.0050170000    0.0387950000    0.0054390000
Se      6.6124100000    5.7343900000    5.8392200000     -0.0049230000    0.0386010000   -0.0055060000
Se      4.9524600000    8.6097100000    5.8392700000     -0.0148280000    0.0275930000    0.0047600000
Se     -1.6876700000    8.6097300000    5.8392200000      0.0102900000   -0.0330570000   -0.0001530000
Se     -1.6876200000    8.6097400000    9.1744300000      0.0104030000   -0.0335130000    0.0003280000
Se      4.9522100000    2.8591600000    5.8392300000      0.0780020000   -0.1294660000    0.0029120000
Se      4.9522600000    2.8591900000    9.1744600000      0.0776240000   -0.1290880000   -0.0028780000
Se      3.2921300000    5.7343900000    9.1744700000      0.0860290000   -0.1436580000    0.0047600000
Se      3.2920800000    5.7343800000    5.8391800000      0.0856390000   -0.1433600000   -0.0047440000
Se     -0.0275400000    5.7345100000    5.8392700000      0.0100170000   -0.0365990000    0.0016490000
Se     -0.0274900000    5.7345400000    9.1744200000      0.0096550000   -0.0364860000   -0.0016850000
Se      6.6122000000   11.4846900000    9.1744700000     -0.0881800000    0.1363960000    0.0080490000
Se      1.6324100000    2.8591900000    5.8392200000      0.0194380000   -0.0316070000   -0.0061890000
Se      1.6324500000    2.8592200000    9.1744300000      0.0196710000   -0.0312390000    0.0062170000
Se      6.6121600000   11.4846600000    5.8391800000     -0.0882340000    0.1359350000   -0.0083200000
Se      8.2720800000    8.6095900000    5.8391800000     -0.0725290000    0.1417080000   -0.0026670000
Se      8.2721300000    8.6096000000    9.1744700000     -0.0725110000    0.1415710000    0.0025550000
Se      4.9522600000   14.3600100000    9.1744600000     -0.0734230000    0.1413190000    0.0096480000
Se      4.9522100000   14.3599800000    5.8392300000     -0.0732960000    0.1417620000   -0.0097380000
