CRYSTAL
PRIMVEC
   9.9600000000000009   5.7504086809999997   0.0000000000000000
  -4.9800000000000004   8.6256130219999996   0.0000000000000000
   0.0000000000000000   0.0000000000000000  15.0000000000000000
PRIMCOORD
 36   1
Mo      4.9584400000   12.4467500000    7.5068200000      0.0284590000    0.0050660000    0.0001390000
Mo      3.2983400000    9.5715300000    7.5068200000     -0.0221970000   -0.0170810000   -0.0002150000
Mo      8.2784200000    6.6963700000    7.5068200000     -0.0187360000   -0.0294850000    0.0002070000
Mo      6.6184700000    9.5715800000    7.5068200000     -0.0085660000    0.0233570000   -0.0003920000
Mo     -1.6816600000    6.6963300000    7.5068200000      0.0227010000    0.0167720000    0.0001170000
Mo     -0.0216400000    3.8210900000    7.5068200000     -0.0309160000    0.0254960000   -0.0002750000
Mo      1.6383900000    0.9459200000    7.5068200000      0.0071880000   -0.0446370000   -0.0001040000
Mo      4.9583600000    6.6962900000    7.5068200000      0.0304750000   -0.0252200000    0.0002840000
Mo      6.6183900000    3.8211300000    7.5068200000     -0.0073320000    0.0448170000    0.0000720000
Mo      3.2984200000    3.8211700000    7.5068200000      0.0180250000    0.0295250000   -0.0000860000
Mo      1.6384700000    6.6963800000    7.5068200000      0.0088990000   -0.0235260000    0.0004160000
Mo     -0.0215600000    9.5715500000    7.5068200000     -0.0283180000   -0.0051080000   -0.0001190000
Se      4.9525100000    8.6097400000    9.1744200000     -0.0808120000    0.2463610000   -0.0510950000
Se      3.2923300000   11.4849300000    5.8392200000      0.0633480000   -0.1842140000    0.1139670000
Se      3.2923800000   11.4849500000    9.1744300000      0.0608590000   -0.1801930000   -0.1149430000
Se      1.6322000000    8.6094900000    9.1744700000      0.1676620000    0.1572120000    0.0185870000
Se      1.6321600000    8.6094500000    5.8391800000      0.1681890000    0.1610440000   -0.0200990000
Se      6.6124500000    5.7344300000    9.1744300000      0.0169820000   -0.0670170000    0.1696250000
Se      6.6124100000    5.7343900000    5.8392200000      0.0146380000   -0.0684440000   -0.1609290000
Se      4.9524600000    8.6097100000    5.8392700000     -0.0786220000    0.2519050000    0.0453870000
Se     -1.6876700000    8.6097300000    5.8392200000     -0.0621400000    0.1856120000   -0.1127300000
Se     -1.6876200000    8.6097400000    9.1744300000     -0.0600630000    0.1816590000    0.1145730000
Se      4.9522100000    2.8591600000    5.8392300000     -0.0753100000   -0.0135320000    0.0431000000
Se      4.9522600000    2.8591900000    9.1744600000     -0.0735270000   -0.0129590000   -0.0460100000
Se      3.2921300000    5.7343900000    9.1744700000     -0.0951360000   -0.1446320000    0.0235220000
Se      3.2920800000    5.7343800000    5.8391800000     -0.0962830000   -0.1485370000   -0.0192310000
Se     -0.0275400000    5.7345100000    5.8392700000      0.0802640000   -0.2522550000   -0.0459290000
Se     -0.0274900000    5.7345400000    9.1744200000      0.0810930000   -0.2467660000    0.0517680000
Se      6.6122000000   11.4846900000    9.1744700000     -0.1698350000   -0.1566930000   -0.0188680000
Se      1.6324100000    2.8591900000    5.8392200000     -0.0159550000    0.0681190000    0.1609810000
Se      1.6324500000    2.8592200000    9.1744300000     -0.0175630000    0.0665020000   -0.1691990000
Se      6.6121600000   11.4846600000    5.8391800000     -0.1697380000   -0.1609350000    0.0197850000
Se      8.2720800000    8.6095900000    5.8391800000      0.0965430000    0.1492650000    0.0180420000
Se      8.2721300000    8.6096000000    9.1744700000      0.0956450000    0.1452140000   -0.0234610000
Se      4.9522600000   14.3600100000    9.1744600000      0.0747580000    0.0113040000    0.0455010000
Se      4.9522100000   14.3599800000    5.8392300000      0.0750060000    0.0119860000   -0.0423780000
