CRYSTAL
PRIMVEC
   9.9600000000000009   5.7504086809999997   0.0000000000000000
  -4.9800000000000004   8.6256130219999996   0.0000000000000000
   0.0000000000000000   0.0000000000000000  15.0000000000000000
PRIMCOORD
 36   1
Mo      4.9584400000   12.4467500000    7.5068200000      0.0091650000    0.0040450000   -0.0003440000
Mo      3.2983400000    9.5715300000    7.5068200000      0.1491120000   -0.2791170000   -0.0003560000
Mo      8.2784200000    6.6963700000    7.5068200000      0.0174460000   -0.0090630000    0.0001260000
Mo      6.6184700000    9.5715800000    7.5068200000     -0.0090160000    0.0210230000    0.0002270000
Mo     -1.6816600000    6.6963300000    7.5068200000     -0.1498250000    0.3028220000    0.0000880000
Mo     -0.0216400000    3.8210900000    7.5068200000     -0.1641840000    0.2787330000    0.0002340000
Mo      1.6383900000    0.9459200000    7.5068200000     -0.1549320000    0.3043590000   -0.0005240000
Mo      4.9583600000    6.6962900000    7.5068200000      0.1449250000   -0.2928070000    0.0003190000
Mo      6.6183900000    3.8211300000    7.5068200000      0.1751370000   -0.3138750000    0.0001100000
Mo      3.2984200000    3.8211700000    7.5068200000     -0.0104020000   -0.0186420000   -0.0004430000
Mo      1.6384700000    6.6963800000    7.5068200000     -0.0121740000   -0.0045400000   -0.0001590000
Mo     -0.0215600000    9.5715500000    7.5068200000      0.0053660000    0.0060050000    0.0007850000
Se      4.9525100000    8.6097400000    9.1744200000     -0.0731340000    0.1358860000    0.0082810000
Se      3.2923300000   11.4849300000    5.8392200000     -0.0841710000    0.1393860000    0.0044980000
Se      3.2923800000   11.4849500000    9.1744300000     -0.0844380000    0.1394980000   -0.0046030000
Se      1.6322000000    8.6094900000    9.1744700000     -0.0139430000    0.0314080000   -0.0022270000
Se      1.6321600000    8.6094500000    5.8391800000     -0.0135610000    0.0312130000    0.0021280000
Se      6.6124500000    5.7344300000    9.1744300000     -0.0789060000    0.1441670000    0.0154240000
Se      6.6124100000    5.7343900000    5.8392200000     -0.0789010000    0.1440590000   -0.0155110000
Se      4.9524600000    8.6097100000    5.8392700000     -0.0733510000    0.1361640000   -0.0085030000
Se     -1.6876700000    8.6097300000    5.8392200000      0.0751860000   -0.1452060000    0.0033530000
Se     -1.6876200000    8.6097400000    9.1744300000      0.0757190000   -0.1452010000   -0.0031690000
Se      4.9522100000    2.8591600000    5.8392300000     -0.0174110000    0.0334480000    0.0030240000
Se      4.9522600000    2.8591900000    9.1744600000     -0.0171770000    0.0330330000   -0.0032570000
Se      3.2921300000    5.7343900000    9.1744700000     -0.0092220000    0.0368920000    0.0019170000
Se      3.2920800000    5.7343800000    5.8391800000     -0.0093560000    0.0367010000   -0.0018640000
Se     -0.0275400000    5.7345100000    5.8392700000      0.0798540000   -0.1354410000    0.0038510000
Se     -0.0274900000    5.7345400000    9.1744200000      0.0797070000   -0.1354160000   -0.0037810000
Se      6.6122000000   11.4846900000    9.1744700000      0.0113400000   -0.0389870000   -0.0013910000
Se      1.6324100000    2.8591900000    5.8392200000      0.0812900000   -0.1389160000    0.0124760000
Se      1.6324500000    2.8592200000    9.1744300000      0.0810160000   -0.1387950000   -0.0122310000
Se      6.6121600000   11.4846600000    5.8391800000      0.0111790000   -0.0388140000    0.0013330000
Se      8.2720800000    8.6095900000    5.8391800000      0.0202770000   -0.0298800000   -0.0066350000
Se      8.2721300000    8.6096000000    9.1744700000      0.0203110000   -0.0298590000    0.0064470000
Se      4.9522600000   14.3600100000    9.1744600000      0.0083600000   -0.0320460000   -0.0014540000
Se      4.9522100000   14.3599800000    5.8392300000      0.0086310000   -0.0321310000    0.0018220000
