CRYSTAL
PRIMVEC
   9.9600000000000009   5.7504086809999997   0.0000000000000000
  -4.9800000000000004   8.6256130219999996   0.0000000000000000
   0.0000000000000000   0.0000000000000000  15.0000000000000000
PRIMCOORD
 36   1
Mo      4.9584400000   12.4467500000    7.5068200000     -0.1528590000   -0.0506540000    0.0023690000
Mo      3.2983400000    9.5715300000    7.5068200000      0.0922040000   -0.1107790000   -0.0006050000
Mo      8.2784200000    6.6963700000    7.5068200000     -0.0722310000   -0.0927170000    0.0006750000
Mo      6.6184700000    9.5715800000    7.5068200000      0.2200650000    0.1403780000   -0.0023020000
Mo     -1.6816600000    6.6963300000    7.5068200000     -0.0910530000    0.1109970000    0.0006730000
Mo     -0.0216400000    3.8210900000    7.5068200000      0.0102550000   -0.1395500000    0.0012830000
Mo      1.6383900000    0.9459200000    7.5068200000      0.0801830000    0.0259190000   -0.0025880000
Mo      4.9583600000    6.6962900000    7.5068200000     -0.0096060000    0.1390000000   -0.0012830000
Mo      6.6183900000    3.8211300000    7.5068200000     -0.0811490000   -0.0272050000    0.0026010000
Mo      3.2984200000    3.8211700000    7.5068200000      0.0710480000    0.0926230000   -0.0006700000
Mo      1.6384700000    6.6963800000    7.5068200000     -0.2189650000   -0.1391000000    0.0022780000
Mo     -0.0215600000    9.5715500000    7.5068200000      0.1522430000    0.0510960000   -0.0025290000
Se      4.9525100000    8.6097400000    9.1744200000      0.2333770000    0.1363460000    0.0013060000
Se      3.2923300000   11.4849300000    5.8392200000     -0.1207320000   -0.1214460000    0.0041790000
Se      3.2923800000   11.4849500000    9.1744300000     -0.1203950000   -0.1239600000    0.0002050000
Se      1.6322000000    8.6094900000    9.1744700000      0.0742590000   -0.1583830000   -0.0114030000
Se      1.6321600000    8.6094500000    5.8391800000      0.0758890000   -0.1618190000    0.0109140000
Se      6.6124500000    5.7344300000    9.1744300000     -0.1158740000   -0.0142230000    0.0014950000
Se      6.6124100000    5.7343900000    5.8392200000     -0.1146020000   -0.0166470000    0.0005460000
Se      4.9524600000    8.6097100000    5.8392700000      0.2331650000    0.1365180000   -0.0062470000
Se     -1.6876700000    8.6097300000    5.8392200000      0.1205660000    0.1210660000   -0.0043180000
Se     -1.6876200000    8.6097400000    9.1744300000      0.1202860000    0.1236820000    0.0000010000
Se      4.9522100000    2.8591600000    5.8392300000      0.0052610000    0.0335720000   -0.0296920000
Se      4.9522600000    2.8591900000    9.1744600000      0.0026500000    0.0305450000    0.0290050000
Se      3.2921300000    5.7343900000    9.1744700000     -0.0741930000    0.1317310000   -0.0170010000
Se      3.2920800000    5.7343800000    5.8391800000     -0.0769390000    0.1329100000    0.0176680000
Se     -0.0275400000    5.7345100000    5.8392700000     -0.2314900000   -0.1364520000    0.0065730000
Se     -0.0274900000    5.7345400000    9.1744200000     -0.2318900000   -0.1362930000   -0.0017290000
Se      6.6122000000   11.4846900000    9.1744700000     -0.0739370000    0.1597590000    0.0113990000
Se      1.6324100000    2.8591900000    5.8392200000      0.1141420000    0.0152830000   -0.0004900000
Se      1.6324500000    2.8592200000    9.1744300000      0.1154050000    0.0128500000   -0.0014100000
Se      6.6121600000   11.4846600000    5.8391800000     -0.0752500000    0.1631370000   -0.0107680000
Se      8.2720800000    8.6095900000    5.8391800000      0.0771890000   -0.1325340000   -0.0176600000
Se      8.2721300000    8.6096000000    9.1744700000      0.0743310000   -0.1313350000    0.0169100000
Se      4.9522600000   14.3600100000    9.1744600000     -0.0042920000   -0.0307180000   -0.0287960000
Se      4.9522100000   14.3599800000    5.8392300000     -0.0068660000   -0.0335840000    0.0294190000
