CRYSTAL
PRIMVEC
   9.9600000000000009   5.7504086809999997   0.0000000000000000
  -4.9800000000000004   8.6256130219999996   0.0000000000000000
   0.0000000000000000   0.0000000000000000  15.0000000000000000
PRIMCOORD
 36   1
Mo      4.9584400000   12.4467500000    7.5068200000     -0.1949330000   -0.1107480000   -0.0000280000
Mo      3.2983400000    9.5715300000    7.5068200000     -0.1981850000   -0.1163280000    0.0000280000
Mo      8.2784200000    6.6963700000    7.5068200000     -0.1936170000   -0.1124550000   -0.0000580000
Mo      6.6184700000    9.5715800000    7.5068200000     -0.1954230000   -0.1121770000    0.0005200000
Mo     -1.6816600000    6.6963300000    7.5068200000     -0.1983910000   -0.1165150000   -0.0000280000
Mo     -0.0216400000    3.8210900000    7.5068200000     -0.2011950000   -0.1130490000    0.0000180000
Mo      1.6383900000    0.9459200000    7.5068200000     -0.1999250000   -0.1146010000    0.0006260000
Mo      4.9583600000    6.6962900000    7.5068200000     -0.2008920000   -0.1131210000   -0.0000420000
Mo      6.6183900000    3.8211300000    7.5068200000     -0.1998000000   -0.1143780000    0.0006280000
Mo      3.2984200000    3.8211700000    7.5068200000     -0.1944510000   -0.1131540000   -0.0000720000
Mo      1.6384700000    6.6963800000    7.5068200000     -0.1955330000   -0.1122550000    0.0006130000
Mo     -0.0215600000    9.5715500000    7.5068200000     -0.1956370000   -0.1104700000   -0.0002900000
Se      4.9525100000    8.6097400000    9.1744200000      0.1095960000    0.0630260000    0.0080980000
Se      3.2923300000   11.4849300000    5.8392200000      0.1096460000    0.0628180000   -0.0103780000
Se      3.2923800000   11.4849500000    9.1744300000      0.1094090000    0.0628980000    0.0101230000
Se      1.6322000000    8.6094900000    9.1744700000      0.1078650000    0.0618640000    0.0064790000
Se      1.6321600000    8.6094500000    5.8391800000      0.1077160000    0.0621610000   -0.0066330000
Se      6.6124500000    5.7344300000    9.1744300000      0.1096730000    0.0625530000    0.0100800000
Se      6.6124100000    5.7343900000    5.8392200000      0.1096570000    0.0628200000   -0.0103190000
Se      4.9524600000    8.6097100000    5.8392700000      0.1093280000    0.0628750000   -0.0082370000
Se     -1.6876700000    8.6097300000    5.8392200000      0.1099240000    0.0629380000   -0.0102210000
Se     -1.6876200000    8.6097400000    9.1744300000      0.1095670000    0.0629760000    0.0100970000
Se      4.9522100000    2.8591600000    5.8392300000      0.1075380000    0.0614960000   -0.0050930000
Se      4.9522600000    2.8591900000    9.1744600000      0.1078230000    0.0617680000    0.0050750000
Se      3.2921300000    5.7343900000    9.1744700000      0.1080700000    0.0618680000    0.0061990000
Se      3.2920800000    5.7343800000    5.8391800000      0.1082840000    0.0617460000   -0.0064160000
Se     -0.0275400000    5.7345100000    5.8392700000      0.1094060000    0.0629200000   -0.0082150000
Se     -0.0274900000    5.7345400000    9.1744200000      0.1096820000    0.0630590000    0.0080410000
Se      6.6122000000   11.4846900000    9.1744700000      0.1076530000    0.0620700000    0.0061590000
Se      1.6324100000    2.8591900000    5.8392200000      0.1100130000    0.0629950000   -0.0102230000
Se      1.6324500000    2.8592200000    9.1744300000      0.1100070000    0.0627590000    0.0099590000
Se      6.6121600000   11.4846600000    5.8391800000      0.1076390000    0.0622620000   -0.0063880000
Se      8.2720800000    8.6095900000    5.8391800000      0.1082530000    0.0615050000   -0.0061550000
Se      8.2721300000    8.6096000000    9.1744700000      0.1080620000    0.0615960000    0.0059420000
Se      4.9522600000   14.3600100000    9.1744600000      0.1076220000    0.0618280000    0.0049090000
Se      4.9522100000   14.3599800000    5.8392300000      0.1073250000    0.0616760000   -0.0050230000
