CRYSTAL
PRIMVEC
   9.9600000000000009   5.7504086809999997   0.0000000000000000
  -4.9800000000000004   8.6256130219999996   0.0000000000000000
   0.0000000000000000   0.0000000000000000  15.0000000000000000
PRIMCOORD
 36   1
Mo      4.9584400000   12.4467500000    7.5068200000     -0.1022560000   -0.1641080000    0.0004930000
Mo      3.2983400000    9.5715300000    7.5068200000     -0.0844140000    0.2618500000   -0.0004560000
Mo      8.2784200000    6.6963700000    7.5068200000     -0.0153600000    0.0541890000   -0.0003010000
Mo      6.6184700000    9.5715800000    7.5068200000      0.1157970000    0.1086260000   -0.0001440000
Mo     -1.6816600000    6.6963300000    7.5068200000      0.0844520000   -0.2606400000    0.0005370000
Mo     -0.0216400000    3.8210900000    7.5068200000     -0.0110250000    0.1026290000    0.0002890000
Mo      1.6383900000    0.9459200000    7.5068200000     -0.0726760000    0.1565110000   -0.0005790000
Mo      4.9583600000    6.6962900000    7.5068200000      0.0122070000   -0.1029150000   -0.0005000000
Mo      6.6183900000    3.8211300000    7.5068200000      0.0723560000   -0.1570210000    0.0006680000
Mo      3.2984200000    3.8211700000    7.5068200000      0.0147670000   -0.0532830000    0.0002980000
Mo      1.6384700000    6.6963800000    7.5068200000     -0.1167380000   -0.1094500000    0.0004000000
Mo     -0.0215600000    9.5715500000    7.5068200000      0.1029220000    0.1636020000   -0.0007360000
Se      4.9525100000    8.6097400000    9.1744200000     -0.0255170000    0.0962940000   -0.1916770000
Se      3.2923300000   11.4849300000    5.8392200000     -0.0413380000    0.0456330000   -0.2427920000
Se      3.2923800000   11.4849500000    9.1744300000     -0.0419360000    0.0455700000    0.2421070000
Se      1.6322000000    8.6094900000    9.1744700000      0.0038160000    0.0202460000   -0.0654290000
Se      1.6321600000    8.6094500000    5.8391800000      0.0031570000    0.0183590000    0.0653260000
Se      6.6124500000    5.7344300000    9.1744300000      0.0667810000   -0.1392010000   -0.0499400000
Se      6.6124100000    5.7343900000    5.8392200000      0.0672780000   -0.1411140000    0.0500150000
Se      4.9524600000    8.6097100000    5.8392700000     -0.0262500000    0.0958480000    0.1919210000
Se     -1.6876700000    8.6097300000    5.8392200000      0.0410760000   -0.0446410000    0.2423530000
Se     -1.6876200000    8.6097400000    9.1744300000      0.0426230000   -0.0441390000   -0.2417590000
Se      4.9522100000    2.8591600000    5.8392300000      0.0164780000    0.0450750000   -0.1039200000
Se      4.9522600000    2.8591900000    9.1744600000      0.0158600000    0.0432270000    0.1039470000
Se      3.2921300000    5.7343900000    9.1744700000     -0.0183470000   -0.0621960000   -0.0385070000
Se      3.2920800000    5.7343800000    5.8391800000     -0.0188270000   -0.0623940000    0.0380750000
Se     -0.0275400000    5.7345100000    5.8392700000      0.0245840000   -0.0959890000   -0.1918760000
Se     -0.0274900000    5.7345400000    9.1744200000      0.0243600000   -0.0968200000    0.1918820000
Se      6.6122000000   11.4846900000    9.1744700000     -0.0021330000   -0.0207680000    0.0651140000
Se      1.6324100000    2.8591900000    5.8392200000     -0.0659050000    0.1400110000   -0.0505010000
Se      1.6324500000    2.8592200000    9.1744300000     -0.0659470000    0.1382610000    0.0502860000
Se      6.6121600000   11.4846600000    5.8391800000     -0.0024160000   -0.0197120000   -0.0648820000
Se      8.2720800000    8.6095900000    5.8391800000      0.0189280000    0.0637940000   -0.0378140000
Se      8.2721300000    8.6096000000    9.1744700000      0.0186730000    0.0634280000    0.0383620000
Se      4.9522600000   14.3600100000    9.1744600000     -0.0171320000   -0.0436690000   -0.1044190000
Se      4.9522100000   14.3599800000    5.8392300000     -0.0177250000   -0.0450890000    0.1041510000
