CRYSTAL
PRIMVEC
   9.9600000000000009   5.7504086809999997   0.0000000000000000
  -4.9800000000000004   8.6256130219999996   0.0000000000000000
   0.0000000000000000   0.0000000000000000  15.0000000000000000
PRIMCOORD
 36   1
Mo      4.9584400000   12.4467500000    7.5068200000     -0.0602470000    0.1135060000    0.0006270000
Mo      3.2983400000    9.5715300000    7.5068200000     -0.0083140000    0.0470020000   -0.0002110000
Mo      8.2784200000    6.6963700000    7.5068200000      0.1673810000   -0.2251980000    0.0004480000
Mo      6.6184700000    9.5715800000    7.5068200000     -0.1062910000    0.1104220000   -0.0006380000
Mo     -1.6816600000    6.6963300000    7.5068200000      0.0082870000   -0.0475280000    0.0000150000
Mo     -0.0216400000    3.8210900000    7.5068200000      0.1643880000    0.0675280000   -0.0003710000
Mo      1.6383900000    0.9459200000    7.5068200000     -0.1703860000   -0.0194670000   -0.0000310000
Mo      4.9583600000    6.6962900000    7.5068200000     -0.1648880000   -0.0671250000    0.0002660000
Mo      6.6183900000    3.8211300000    7.5068200000      0.1707170000    0.0195540000   -0.0002720000
Mo      3.2984200000    3.8211700000    7.5068200000     -0.1675090000    0.2247400000   -0.0001480000
Mo      1.6384700000    6.6963800000    7.5068200000      0.1068340000   -0.1102880000    0.0007700000
Mo     -0.0215600000    9.5715500000    7.5068200000      0.0599910000   -0.1131390000   -0.0004550000
Se      4.9525100000    8.6097400000    9.1744200000     -0.0535910000    0.0053220000   -0.0384230000
Se      3.2923300000   11.4849300000    5.8392200000      0.0494220000    0.0037910000   -0.0893270000
Se      3.2923800000   11.4849500000    9.1744300000      0.0469880000    0.0036430000    0.0895040000
Se      1.6322000000    8.6094900000    9.1744700000      0.0874340000   -0.1312830000   -0.0047300000
Se      1.6321600000    8.6094500000    5.8391800000      0.0882880000   -0.1330560000    0.0051020000
Se      6.6124500000    5.7344300000    9.1744300000      0.0035310000   -0.0090200000   -0.0520720000
Se      6.6124100000    5.7343900000    5.8392200000      0.0045610000   -0.0085260000    0.0527160000
Se      4.9524600000    8.6097100000    5.8392700000     -0.0543800000    0.0041380000    0.0376330000
Se     -1.6876700000    8.6097300000    5.8392200000     -0.0483230000   -0.0043730000    0.0891410000
Se     -1.6876200000    8.6097400000    9.1744300000     -0.0475360000   -0.0046250000   -0.0897970000
Se      4.9522100000    2.8591600000    5.8392300000     -0.0331020000    0.0828000000    0.2238830000
Se      4.9522600000    2.8591900000    9.1744600000     -0.0324150000    0.0831750000   -0.2235560000
Se      3.2921300000    5.7343900000    9.1744700000     -0.0571680000    0.0503340000    0.2287940000
Se      3.2920800000    5.7343800000    5.8391800000     -0.0551400000    0.0503090000   -0.2288810000
Se     -0.0275400000    5.7345100000    5.8392700000      0.0549600000   -0.0035660000   -0.0377800000
Se     -0.0274900000    5.7345400000    9.1744200000      0.0538160000   -0.0049520000    0.0382980000
Se      6.6122000000   11.4846900000    9.1744700000     -0.0884450000    0.1316820000    0.0049880000
Se      1.6324100000    2.8591900000    5.8392200000     -0.0046090000    0.0093300000   -0.0528020000
Se      1.6324500000    2.8592200000    9.1744300000     -0.0048900000    0.0089290000    0.0517500000
Se      6.6121600000   11.4846600000    5.8391800000     -0.0882530000    0.1332600000   -0.0049260000
Se      8.2720800000    8.6095900000    5.8391800000      0.0557510000   -0.0512300000    0.2291610000
Se      8.2721300000    8.6096000000    9.1744700000      0.0569810000   -0.0509650000   -0.2284880000
Se      4.9522600000   14.3600100000    9.1744600000      0.0320600000   -0.0827790000    0.2237300000
Se      4.9522100000   14.3599800000    5.8392300000      0.0339710000   -0.0823490000   -0.2239030000
