CRYSTAL
PRIMVEC
   9.9600000000000009   5.7504086809999997   0.0000000000000000
  -4.9800000000000004   8.6256130219999996   0.0000000000000000
   0.0000000000000000   0.0000000000000000  15.0000000000000000
PRIMCOORD
 36   1
Mo      4.9584400000   12.4467500000    7.5068200000     -0.0061100000    0.0975590000    0.0000630000
Mo      3.2983400000    9.5715300000    7.5068200000      0.0301980000   -0.0737260000   -0.0002420000
Mo      8.2784200000    6.6963700000    7.5068200000      0.1035020000   -0.1422070000    0.0001330000
Mo      6.6184700000    9.5715800000    7.5068200000     -0.0967900000    0.0443840000   -0.0003120000
Mo     -1.6816600000    6.6963300000    7.5068200000     -0.0303210000    0.0734430000    0.0006490000
Mo     -0.0216400000    3.8210900000    7.5068200000     -0.3020360000   -0.2107080000   -0.0002070000
Mo      1.6383900000    0.9459200000    7.5068200000      0.3289490000    0.1347190000   -0.0007350000
Mo      4.9583600000    6.6962900000    7.5068200000      0.3020260000    0.2103490000    0.0001800000
Mo      6.6183900000    3.8211300000    7.5068200000     -0.3290430000   -0.1344590000    0.0006370000
Mo      3.2984200000    3.8211700000    7.5068200000     -0.1036150000    0.1419930000   -0.0000270000
Mo      1.6384700000    6.6963800000    7.5068200000      0.0970160000   -0.0443260000    0.0001920000
Mo     -0.0215600000    9.5715500000    7.5068200000      0.0060600000   -0.0971040000   -0.0003290000
Se      4.9525100000    8.6097400000    9.1744200000     -0.0175100000   -0.0605630000   -0.1155450000
Se      3.2923300000   11.4849300000    5.8392200000      0.0687970000   -0.0120310000   -0.1151180000
Se      3.2923800000   11.4849500000    9.1744300000      0.0686940000   -0.0118340000    0.1158350000
Se      1.6322000000    8.6094900000    9.1744700000     -0.0260540000    0.0460940000   -0.0068460000
Se      1.6321600000    8.6094500000    5.8391800000     -0.0258940000    0.0463560000    0.0068960000
Se      6.6124500000    5.7344300000    9.1744300000     -0.0518360000    0.0713580000   -0.0017450000
Se      6.6124100000    5.7343900000    5.8392200000     -0.0518420000    0.0716330000    0.0011200000
Se      4.9524600000    8.6097100000    5.8392700000     -0.0171940000   -0.0602810000    0.1150340000
Se     -1.6876700000    8.6097300000    5.8392200000     -0.0686420000    0.0121420000    0.1149140000
Se     -1.6876200000    8.6097400000    9.1744300000     -0.0686300000    0.0116650000   -0.1157270000
Se      4.9522100000    2.8591600000    5.8392300000      0.1380390000    0.0431400000    0.0288860000
Se      4.9522600000    2.8591900000    9.1744600000      0.1380490000    0.0435010000   -0.0287300000
Se      3.2921300000    5.7343900000    9.1744700000     -0.1124480000   -0.0899100000    0.0372110000
Se      3.2920800000    5.7343800000    5.8391800000     -0.1124990000   -0.0899780000   -0.0371500000
Se     -0.0275400000    5.7345100000    5.8392700000      0.0172650000    0.0604160000   -0.1152420000
Se     -0.0274900000    5.7345400000    9.1744200000      0.0174770000    0.0607890000    0.1155580000
Se      6.6122000000   11.4846900000    9.1744700000      0.0259360000   -0.0461150000    0.0067060000
Se      1.6324100000    2.8591900000    5.8392200000      0.0519160000   -0.0716040000   -0.0009620000
Se      1.6324500000    2.8592200000    9.1744300000      0.0519610000   -0.0712640000    0.0015970000
Se      6.6121600000   11.4846600000    5.8391800000      0.0258990000   -0.0464830000   -0.0068370000
Se      8.2720800000    8.6095900000    5.8391800000      0.1123860000    0.0901520000    0.0371580000
Se      8.2721300000    8.6096000000    9.1744700000      0.1123550000    0.0899540000   -0.0371000000
Se      4.9522600000   14.3600100000    9.1744600000     -0.1381610000   -0.0436270000    0.0288200000
Se      4.9522100000   14.3599800000    5.8392300000     -0.1378850000   -0.0434130000   -0.0287340000
