CRYSTAL
PRIMVEC
   9.9600000000000009   5.7504086809999997   0.0000000000000000
  -4.9800000000000004   8.6256130219999996   0.0000000000000000
   0.0000000000000000   0.0000000000000000  15.0000000000000000
PRIMCOORD
 36   1
Mo      4.9584400000   12.4467500000    7.5068200000      0.0001890000    0.0000320000   -0.1937360000
Mo      3.2983400000    9.5715300000    7.5068200000     -0.0000730000   -0.0003870000    0.1405120000
Mo      8.2784200000    6.6963700000    7.5068200000      0.0000770000    0.0002670000   -0.1410640000
Mo      6.6184700000    9.5715800000    7.5068200000      0.0002110000   -0.0000930000    0.3373420000
Mo     -1.6816600000    6.6963300000    7.5068200000      0.0005280000   -0.0004110000    0.1405270000
Mo     -0.0216400000    3.8210900000    7.5068200000     -0.0000390000   -0.0000040000    0.1929380000
Mo      1.6383900000    0.9459200000    7.5068200000     -0.0001310000    0.0001750000   -0.3361030000
Mo      4.9583600000    6.6962900000    7.5068200000     -0.0005830000    0.0000650000    0.1929990000
Mo      6.6183900000    3.8211300000    7.5068200000     -0.0000940000    0.0001720000   -0.3359780000
Mo      3.2984200000    3.8211700000    7.5068200000     -0.0005300000    0.0004760000   -0.1411060000
Mo      1.6384700000    6.6963800000    7.5068200000      0.0001770000   -0.0002840000    0.3373460000
Mo     -0.0215600000    9.5715500000    7.5068200000      0.0005380000   -0.0000370000   -0.1937400000
Se      4.9525100000    8.6097400000    9.1744200000      0.0195230000    0.0023060000   -0.1365710000
Se      3.2923300000   11.4849300000    5.8392200000     -0.0264110000    0.0655000000    0.0787440000
Se      3.2923800000   11.4849500000    9.1744300000      0.0265040000   -0.0654150000    0.0796620000
Se      1.6322000000    8.6094900000    9.1744700000      0.0447560000   -0.0640720000   -0.0578660000
Se      1.6321600000    8.6094500000    5.8391800000     -0.0448880000    0.0642380000   -0.0577420000
Se      6.6124500000    5.7344300000    9.1744300000     -0.0447850000    0.0636770000    0.0578960000
Se      6.6124100000    5.7343900000    5.8392200000      0.0449460000   -0.0637940000    0.0577220000
Se      4.9524600000    8.6097100000    5.8392700000     -0.0196580000   -0.0024120000   -0.1362770000
Se     -1.6876700000    8.6097300000    5.8392200000     -0.0265640000    0.0654900000    0.0787130000
Se     -1.6876200000    8.6097400000    9.1744300000      0.0264010000   -0.0654550000    0.0797560000
Se      4.9522100000    2.8591600000    5.8392300000      0.0192160000    0.0020160000    0.1360870000
Se      4.9522600000    2.8591900000    9.1744600000     -0.0190070000   -0.0020850000    0.1366990000
Se      3.2921300000    5.7343900000    9.1744700000     -0.0268930000    0.0655610000   -0.0797760000
Se      3.2920800000    5.7343800000    5.8391800000      0.0269980000   -0.0655890000   -0.0786310000
Se     -0.0275400000    5.7345100000    5.8392700000     -0.0197570000   -0.0023260000   -0.1361270000
Se     -0.0274900000    5.7345400000    9.1744200000      0.0194540000    0.0024190000   -0.1367210000
Se      6.6122000000   11.4846900000    9.1744700000      0.0447590000   -0.0641460000   -0.0577880000
Se      1.6324100000    2.8591900000    5.8392200000      0.0449680000   -0.0637570000    0.0579610000
Se      1.6324500000    2.8592200000    9.1744300000     -0.0448040000    0.0637380000    0.0577930000
Se      6.6121600000   11.4846600000    5.8391800000     -0.0449830000    0.0641590000   -0.0578790000
Se      8.2720800000    8.6095900000    5.8391800000      0.0268860000   -0.0655910000   -0.0787820000
Se      8.2721300000    8.6096000000    9.1744700000     -0.0269730000    0.0655380000   -0.0796000000
Se      4.9522600000   14.3600100000    9.1744600000     -0.0190750000   -0.0020400000    0.1365340000
Se      4.9522100000   14.3599800000    5.8392300000      0.0191350000    0.0020730000    0.1362620000
