CRYSTAL
PRIMVEC
   9.9600000000000009   5.7504086809999997   0.0000000000000000
  -4.9800000000000004   8.6256130219999996   0.0000000000000000
   0.0000000000000000   0.0000000000000000  15.0000000000000000
PRIMCOORD
 36   1
Mo      4.9584400000   12.4467500000    7.5068200000      0.0002480000   -0.0000260000    0.1936700000
Mo      3.2983400000    9.5715300000    7.5068200000     -0.0000740000   -0.0000500000   -0.1724030000
Mo      8.2784200000    6.6963700000    7.5068200000     -0.0000420000   -0.0000050000   -0.1749740000
Mo      6.6184700000    9.5715800000    7.5068200000     -0.0001950000    0.0001290000   -0.0213400000
Mo     -1.6816600000    6.6963300000    7.5068200000      0.0000040000   -0.0002640000   -0.1723360000
Mo     -0.0216400000    3.8210900000    7.5068200000     -0.0000670000    0.0001750000    0.1945880000
Mo      1.6383900000    0.9459200000    7.5068200000     -0.0001480000   -0.0001290000   -0.0195370000
Mo      4.9583600000    6.6962900000    7.5068200000     -0.0000020000    0.0000770000    0.1944640000
Mo      6.6183900000    3.8211300000    7.5068200000      0.0000020000   -0.0002510000   -0.0193630000
Mo      3.2984200000    3.8211700000    7.5068200000      0.0000850000    0.0000740000   -0.1749640000
Mo      1.6384700000    6.6963800000    7.5068200000     -0.0002990000    0.0002680000   -0.0214630000
Mo     -0.0215600000    9.5715500000    7.5068200000      0.0006390000   -0.0000050000    0.1937250000
Se      4.9525100000    8.6097400000    9.1744200000     -0.0798850000    0.1691200000    0.0003200000
Se      3.2923300000   11.4849300000    5.8392200000      0.0809000000    0.1395080000    0.0031370000
Se      3.2923800000   11.4849500000    9.1744300000     -0.0806120000   -0.1394710000    0.0033070000
Se      1.6322000000    8.6094900000    9.1744700000      0.1680320000   -0.0331430000   -0.0018680000
Se      1.6321600000    8.6094500000    5.8391800000     -0.1675770000    0.0331880000   -0.0023540000
Se      6.6124500000    5.7344300000    9.1744300000      0.1654080000   -0.0338630000   -0.0019580000
Se      6.6124100000    5.7343900000    5.8392200000     -0.1657100000    0.0333380000   -0.0016020000
Se      4.9524600000    8.6097100000    5.8392700000      0.0798430000   -0.1691020000    0.0003020000
Se     -1.6876700000    8.6097300000    5.8392200000      0.0811500000    0.1394720000    0.0033840000
Se     -1.6876200000    8.6097400000    9.1744300000     -0.0805710000   -0.1393670000    0.0029390000
Se      4.9522100000    2.8591600000    5.8392300000      0.0815260000   -0.1695790000   -0.0007530000
Se      4.9522600000    2.8591900000    9.1744600000     -0.0811310000    0.1693260000   -0.0005990000
Se      3.2921300000    5.7343900000    9.1744700000     -0.0857370000   -0.1421850000    0.0009860000
Se      3.2920800000    5.7343800000    5.8391800000      0.0852440000    0.1429240000    0.0010790000
Se     -0.0275400000    5.7345100000    5.8392700000      0.0796750000   -0.1692080000    0.0000810000
Se     -0.0274900000    5.7345400000    9.1744200000     -0.0799100000    0.1692030000    0.0005810000
Se      6.6122000000   11.4846900000    9.1744700000      0.1677420000   -0.0332220000   -0.0019670000
Se      1.6324100000    2.8591900000    5.8392200000     -0.1657970000    0.0336440000   -0.0015280000
Se      1.6324500000    2.8592200000    9.1744300000      0.1655300000   -0.0338310000   -0.0020080000
Se      6.6121600000   11.4846600000    5.8391800000     -0.1676540000    0.0329850000   -0.0021280000
Se      8.2720800000    8.6095900000    5.8391800000      0.0851560000    0.1428350000    0.0011560000
Se      8.2721300000    8.6096000000    9.1744700000     -0.0857540000   -0.1423780000    0.0009670000
Se      4.9522600000   14.3600100000    9.1744600000     -0.0812620000    0.1694170000   -0.0006140000
Se      4.9522100000   14.3599800000    5.8392300000      0.0812590000   -0.1694650000   -0.0008300000
