CRYSTAL
PRIMVEC
   9.9600000000000009   5.7504086809999997   0.0000000000000000
  -4.9800000000000004   8.6256130219999996   0.0000000000000000
   0.0000000000000000   0.0000000000000000  15.0000000000000000
PRIMCOORD
 36   1
Mo      4.9584400000   12.4467500000    7.5068200000     -0.1855490000    0.0664950000    0.0009090000
Mo      3.2983400000    9.5715300000    7.5068200000      0.0245880000    0.2082000000   -0.0013130000
Mo      8.2784200000    6.6963700000    7.5068200000     -0.0274710000   -0.1944420000   -0.0024740000
Mo      6.6184700000    9.5715800000    7.5068200000      0.2223740000    0.1190250000    0.0006970000
Mo     -1.6816600000    6.6963300000    7.5068200000      0.0245690000    0.2076830000   -0.0012970000
Mo     -0.0216400000    3.8210900000    7.5068200000      0.1963210000   -0.0764620000    0.0016910000
Mo      1.6383900000    0.9459200000    7.5068200000     -0.2288900000   -0.1242340000    0.0001480000
Mo      4.9583600000    6.6962900000    7.5068200000      0.1960990000   -0.0761340000    0.0013950000
Mo      6.6183900000    3.8211300000    7.5068200000     -0.2292890000   -0.1242000000    0.0007190000
Mo      3.2984200000    3.8211700000    7.5068200000     -0.0293480000   -0.1953800000   -0.0026950000
Mo      1.6384700000    6.6963800000    7.5068200000      0.2205680000    0.1179370000    0.0009730000
Mo     -0.0215600000    9.5715500000    7.5068200000     -0.1874330000    0.0674730000    0.0012100000
Se      4.9525100000    8.6097400000    9.1744200000     -0.0798410000   -0.0480340000    0.1262000000
Se      3.2923300000   11.4849300000    5.8392200000      0.0856860000   -0.0518630000    0.0612050000
Se      3.2923800000   11.4849500000    9.1744300000      0.0857790000   -0.0509170000   -0.0616080000
Se      1.6322000000    8.6094900000    9.1744700000     -0.0008080000   -0.0920910000    0.0624060000
Se      1.6321600000    8.6094500000    5.8391800000     -0.0000810000   -0.0917150000   -0.0625820000
Se      6.6124500000    5.7344300000    9.1744300000     -0.0034050000    0.0944710000   -0.0627750000
Se      6.6124100000    5.7343900000    5.8392200000     -0.0020050000    0.0949980000    0.0628050000
Se      4.9524600000    8.6097100000    5.8392700000     -0.0807040000   -0.0472930000   -0.1262490000
Se     -1.6876700000    8.6097300000    5.8392200000      0.0861070000   -0.0516250000    0.0616150000
Se     -1.6876200000    8.6097400000    9.1744300000      0.0862080000   -0.0507750000   -0.0619460000
Se      4.9522100000    2.8591600000    5.8392300000      0.0836550000    0.0497760000    0.1230910000
Se      4.9522600000    2.8591900000    9.1744600000      0.0846220000    0.0487360000   -0.1231030000
Se      3.2921300000    5.7343900000    9.1744700000     -0.0849970000    0.0483330000    0.0605290000
Se      3.2920800000    5.7343800000    5.8391800000     -0.0853780000    0.0466910000   -0.0601570000
Se     -0.0275400000    5.7345100000    5.8392700000     -0.0802060000   -0.0467690000   -0.1257670000
Se     -0.0274900000    5.7345400000    9.1744200000     -0.0792060000   -0.0475700000    0.1254880000
Se      6.6122000000   11.4846900000    9.1744700000     -0.0016270000   -0.0920050000    0.0615310000
Se      1.6324100000    2.8591900000    5.8392200000     -0.0016850000    0.0952280000    0.0635880000
Se      1.6324500000    2.8592200000    9.1744300000     -0.0031440000    0.0949630000   -0.0633360000
Se      6.6121600000   11.4846600000    5.8391800000     -0.0007180000   -0.0916810000   -0.0613650000
Se      8.2720800000    8.6095900000    5.8391800000     -0.0859210000    0.0464510000   -0.0596180000
Se      8.2721300000    8.6096000000    9.1744700000     -0.0855650000    0.0480170000    0.0598040000
Se      4.9522600000   14.3600100000    9.1744600000      0.0837860000    0.0490810000   -0.1230190000
Se      4.9522100000   14.3599800000    5.8392300000      0.0831370000    0.0500540000    0.1233230000
