CRYSTAL
PRIMVEC
   9.9600000000000009   5.7504086809999997   0.0000000000000000
  -4.9800000000000004   8.6256130219999996   0.0000000000000000
   0.0000000000000000   0.0000000000000000  15.0000000000000000
PRIMCOORD
 36   1
Mo      4.9584400000   12.4467500000    7.5068200000      0.0542630000   -0.1535230000   -0.0004340000
Mo      3.2983400000    9.5715300000    7.5068200000     -0.1044990000    0.1255370000   -0.0005550000
Mo      8.2784200000    6.6963700000    7.5068200000      0.1060630000   -0.1254070000    0.0004050000
Mo      6.6184700000    9.5715800000    7.5068200000      0.0767800000   -0.1312430000    0.0003230000
Mo     -1.6816600000    6.6963300000    7.5068200000     -0.1075500000    0.1242750000   -0.0006660000
Mo     -0.0216400000    3.8210900000    7.5068200000     -0.0544620000    0.1546310000    0.0004850000
Mo      1.6383900000    0.9459200000    7.5068200000     -0.0747230000    0.1312810000   -0.0003340000
Mo      4.9583600000    6.6962900000    7.5068200000     -0.0550320000    0.1540350000    0.0005400000
Mo      6.6183900000    3.8211300000    7.5068200000     -0.0778660000    0.1303560000   -0.0000450000
Mo      3.2984200000    3.8211700000    7.5068200000      0.1048520000   -0.1251640000    0.0005860000
Mo      1.6384700000    6.6963800000    7.5068200000      0.0757380000   -0.1301200000    0.0000300000
Mo     -0.0215600000    9.5715500000    7.5068200000      0.0564000000   -0.1547220000   -0.0002940000
Se      4.9525100000    8.6097400000    9.1744200000     -0.0883540000    0.1554700000    0.0000190000
Se      3.2923300000   11.4849300000    5.8392200000     -0.1061500000    0.1285730000   -0.0060060000
Se      3.2923800000   11.4849500000    9.1744300000     -0.1055880000    0.1282700000    0.0055120000
Se      1.6322000000    8.6094900000    9.1744700000      0.0599930000   -0.1538210000    0.0058890000
Se      1.6321600000    8.6094500000    5.8391800000      0.0598510000   -0.1543330000   -0.0064350000
Se      6.6124500000    5.7344300000    9.1744300000     -0.0586170000    0.1535610000   -0.0056760000
Se      6.6124100000    5.7343900000    5.8392200000     -0.0587490000    0.1541530000    0.0062030000
Se      4.9524600000    8.6097100000    5.8392700000     -0.0877770000    0.1546690000    0.0002350000
Se     -1.6876700000    8.6097300000    5.8392200000     -0.1038150000    0.1269830000   -0.0060780000
Se     -1.6876200000    8.6097400000    9.1744300000     -0.1036330000    0.1266340000    0.0053240000
Se      4.9522100000    2.8591600000    5.8392300000      0.0875930000   -0.1557310000   -0.0000590000
Se      4.9522600000    2.8591900000    9.1744600000      0.0880630000   -0.1564130000    0.0002720000
Se      3.2921300000    5.7343900000    9.1744700000      0.1041680000   -0.1271190000   -0.0057180000
Se      3.2920800000    5.7343800000    5.8391800000      0.1048310000   -0.1273870000    0.0063290000
Se     -0.0275400000    5.7345100000    5.8392700000     -0.0898460000    0.1556630000    0.0002080000
Se     -0.0274900000    5.7345400000    9.1744200000     -0.0904720000    0.1565350000   -0.0002540000
Se      6.6122000000   11.4846900000    9.1744700000      0.0565780000   -0.1545520000    0.0057110000
Se      1.6324100000    2.8591900000    5.8392200000     -0.0583900000    0.1550170000    0.0057730000
Se      1.6324500000    2.8592200000    9.1744300000     -0.0584660000    0.1540960000   -0.0053120000
Se      6.6121600000   11.4846600000    5.8391800000      0.0563650000   -0.1554730000   -0.0062420000
Se      8.2720800000    8.6095900000    5.8391800000      0.1061770000   -0.1277840000    0.0063410000
Se      8.2721300000    8.6096000000    9.1744700000      0.1058690000   -0.1277150000   -0.0056040000
Se      4.9522600000   14.3600100000    9.1744600000      0.0904460000   -0.1549590000   -0.0001120000
Se      4.9522100000   14.3599800000    5.8392300000      0.0898360000   -0.1543490000   -0.0003260000
