CRYSTAL
PRIMVEC
   9.9600000000000009   5.7504086809999997   0.0000000000000000
  -4.9800000000000004   8.6256130219999996   0.0000000000000000
   0.0000000000000000   0.0000000000000000  15.0000000000000000
PRIMCOORD
 36   1
Mo      4.9584400000   12.4467500000    7.5068200000     -0.0003640000   -0.0000150000   -0.1438300000
Mo      3.2983400000    9.5715300000    7.5068200000      0.0006570000    0.0003300000   -0.1803460000
Mo      8.2784200000    6.6963700000    7.5068200000     -0.0005490000   -0.0000140000   -0.1442810000
Mo      6.6184700000    9.5715800000    7.5068200000      0.0001590000    0.0002800000   -0.1435500000
Mo     -1.6816600000    6.6963300000    7.5068200000     -0.0003830000   -0.0002090000    0.1801870000
Mo     -0.0216400000    3.8210900000    7.5068200000     -0.0005760000   -0.0007900000    0.1800690000
Mo      1.6383900000    0.9459200000    7.5068200000     -0.0011030000   -0.0006910000    0.1801390000
Mo      4.9583600000    6.6962900000    7.5068200000      0.0002760000    0.0009250000   -0.1805770000
Mo      6.6183900000    3.8211300000    7.5068200000      0.0009420000    0.0006630000   -0.1792820000
Mo      3.2984200000    3.8211700000    7.5068200000      0.0007310000   -0.0000200000    0.1444010000
Mo      1.6384700000    6.6963800000    7.5068200000     -0.0001070000   -0.0004550000    0.1427300000
Mo     -0.0215600000    9.5715500000    7.5068200000      0.0002960000   -0.0000020000    0.1443180000
Se      4.9525100000    8.6097400000    9.1744200000     -0.0055880000   -0.0030220000   -0.1904410000
Se      3.2923300000   11.4849300000    5.8392200000      0.0062220000    0.0035600000   -0.1905160000
Se      3.2923800000   11.4849500000    9.1744300000     -0.0054980000   -0.0037300000   -0.1895380000
Se      1.6322000000    8.6094900000    9.1744700000      0.1197840000    0.0675540000    0.0393610000
Se      1.6321600000    8.6094500000    5.8391800000     -0.1190630000   -0.0680610000    0.0398720000
Se      6.6124500000    5.7344300000    9.1744300000     -0.0061220000   -0.0025490000   -0.1899420000
Se      6.6124100000    5.7343900000    5.8392200000      0.0056820000    0.0037600000   -0.1906930000
Se      4.9524600000    8.6097100000    5.8392700000      0.0067230000    0.0043140000   -0.1911940000
Se     -1.6876700000    8.6097300000    5.8392200000     -0.0065920000   -0.0031280000    0.1909450000
Se     -1.6876200000    8.6097400000    9.1744300000      0.0055780000    0.0034250000    0.1900070000
Se      4.9522100000    2.8591600000    5.8392300000     -0.1177200000   -0.0683750000    0.0411610000
Se      4.9522600000    2.8591900000    9.1744600000      0.1195670000    0.0686410000    0.0407830000
Se      3.2921300000    5.7343900000    9.1744700000      0.1189810000    0.0699430000    0.0393870000
Se      3.2920800000    5.7343800000    5.8391800000     -0.1183020000   -0.0694140000    0.0397690000
Se     -0.0275400000    5.7345100000    5.8392700000     -0.0069880000   -0.0042450000    0.1905720000
Se     -0.0274900000    5.7345400000    9.1744200000      0.0059110000    0.0030400000    0.1898880000
Se      6.6122000000   11.4846900000    9.1744700000     -0.1193760000   -0.0679870000   -0.0397500000
Se      1.6324100000    2.8591900000    5.8392200000     -0.0057740000   -0.0040760000    0.1909780000
Se      1.6324500000    2.8592200000    9.1744300000      0.0058790000    0.0030800000    0.1901000000
Se      6.6121600000   11.4846600000    5.8391800000      0.1190750000    0.0684350000   -0.0398740000
Se      8.2720800000    8.6095900000    5.8391800000      0.1183400000    0.0690020000   -0.0403600000
Se      8.2721300000    8.6096000000    9.1744700000     -0.1190720000   -0.0696520000   -0.0399070000
Se      4.9522600000   14.3600100000    9.1744600000     -0.1197920000   -0.0687410000   -0.0399650000
Se      4.9522100000   14.3599800000    5.8392300000      0.1180410000    0.0682250000   -0.0406630000
