CRYSTAL
PRIMVEC
   9.9600000000000009   5.7504086809999997   0.0000000000000000
  -4.9800000000000004   8.6256130219999996   0.0000000000000000
   0.0000000000000000   0.0000000000000000  15.0000000000000000
PRIMCOORD
 36   1
Mo      4.9584400000   12.4467500000    7.5068200000      0.0281640000    0.2027490000   -0.0008800000
Mo      3.2983400000    9.5715300000    7.5068200000      0.1729650000   -0.1027620000   -0.0007540000
Mo      8.2784200000    6.6963700000    7.5068200000      0.1743050000   -0.1001670000   -0.0005470000
Mo      6.6184700000    9.5715800000    7.5068200000     -0.2015910000   -0.1018920000    0.0013690000
Mo     -1.6816600000    6.6963300000    7.5068200000      0.1729020000   -0.1027080000   -0.0001650000
Mo     -0.0216400000    3.8210900000    7.5068200000      0.0253410000    0.2023980000   -0.0007460000
Mo      1.6383900000    0.9459200000    7.5068200000     -0.1985150000   -0.0998750000    0.0006580000
Mo      4.9583600000    6.6962900000    7.5068200000      0.0251730000    0.2024820000   -0.0007110000
Mo      6.6183900000    3.8211300000    7.5068200000     -0.1985940000   -0.0997500000    0.0014550000
Mo      3.2984200000    3.8211700000    7.5068200000      0.1733860000   -0.1008580000   -0.0006140000
Mo      1.6384700000    6.6963800000    7.5068200000     -0.2024430000   -0.1025680000    0.0007200000
Mo     -0.0215600000    9.5715500000    7.5068200000      0.0275100000    0.2022530000   -0.0002600000
Se      4.9525100000    8.6097400000    9.1744200000     -0.0104190000   -0.0043700000    0.1964030000
Se      3.2923300000   11.4849300000    5.8392200000     -0.0043810000    0.0173480000    0.1098030000
Se      3.2923800000   11.4849500000    9.1744300000     -0.0024190000    0.0158940000   -0.1092920000
Se      1.6322000000    8.6094900000    9.1744700000      0.0118730000   -0.0150990000   -0.0869230000
Se      1.6321600000    8.6094500000    5.8391800000      0.0116410000   -0.0163370000    0.0871440000
Se      6.6124500000    5.7344300000    9.1744300000      0.0128410000   -0.0113660000   -0.0871860000
Se      6.6124100000    5.7343900000    5.8392200000      0.0130170000   -0.0135590000    0.0878870000
Se      4.9524600000    8.6097100000    5.8392700000     -0.0081960000   -0.0032380000   -0.1974340000
Se     -1.6876700000    8.6097300000    5.8392200000     -0.0043890000    0.0167610000    0.1096730000
Se     -1.6876200000    8.6097400000    9.1744300000     -0.0031780000    0.0160490000   -0.1088020000
Se      4.9522100000    2.8591600000    5.8392300000     -0.0052130000   -0.0014500000   -0.1958160000
Se      4.9522600000    2.8591900000    9.1744600000     -0.0074690000   -0.0021250000    0.1954830000
Se      3.2921300000    5.7343900000    9.1744700000     -0.0058140000    0.0159920000   -0.1087980000
Se      3.2920800000    5.7343800000    5.8391800000     -0.0074110000    0.0171040000    0.1087520000
Se     -0.0275400000    5.7345100000    5.8392700000     -0.0091610000   -0.0035880000   -0.1977640000
Se     -0.0274900000    5.7345400000    9.1744200000     -0.0105110000   -0.0047220000    0.1966360000
Se      6.6122000000   11.4846900000    9.1744700000      0.0119840000   -0.0142470000   -0.0862630000
Se      1.6324100000    2.8591900000    5.8392200000      0.0125820000   -0.0136930000    0.0870530000
Se      1.6324500000    2.8592200000    9.1744300000      0.0124350000   -0.0122780000   -0.0873100000
Se      6.6121600000   11.4846600000    5.8391800000      0.0123510000   -0.0162500000    0.0871680000
Se      8.2720800000    8.6095900000    5.8391800000     -0.0070450000    0.0176620000    0.1088710000
Se      8.2721300000    8.6096000000    9.1744700000     -0.0050260000    0.0164100000   -0.1081550000
Se      4.9522600000   14.3600100000    9.1744600000     -0.0066960000   -0.0020080000    0.1950290000
Se      4.9522100000   14.3599800000    5.8392300000     -0.0048470000   -0.0010120000   -0.1967900000
