CRYSTAL
PRIMVEC
   9.9600000000000009   5.7504086809999997   0.0000000000000000
  -4.9800000000000004   8.6256130219999996   0.0000000000000000
   0.0000000000000000   0.0000000000000000  15.0000000000000000
PRIMCOORD
 36   1
Mo      4.9584400000   12.4467500000    7.5068200000     -0.0000360000    0.0000150000    0.0076860000
Mo      3.2983400000    9.5715300000    7.5068200000      0.0000270000   -0.0003050000   -0.0061130000
Mo      8.2784200000    6.6963700000    7.5068200000     -0.0000460000    0.0003170000    0.0013120000
Mo      6.6184700000    9.5715800000    7.5068200000      0.0002090000   -0.0005140000   -0.0076210000
Mo     -1.6816600000    6.6963300000    7.5068200000     -0.0000460000    0.0002880000    0.0062450000
Mo     -0.0216400000    3.8210900000    7.5068200000     -0.0003930000   -0.0004690000    0.0003330000
Mo      1.6383900000    0.9459200000    7.5068200000     -0.0001840000    0.0000150000   -0.0060190000
Mo      4.9583600000    6.6962900000    7.5068200000      0.0003830000    0.0004140000   -0.0001580000
Mo      6.6183900000    3.8211300000    7.5068200000      0.0001130000   -0.0000710000    0.0062030000
Mo      3.2984200000    3.8211700000    7.5068200000     -0.0000640000   -0.0002350000   -0.0015750000
Mo      1.6384700000    6.6963800000    7.5068200000     -0.0001040000    0.0004810000    0.0075630000
Mo     -0.0215600000    9.5715500000    7.5068200000      0.0000720000    0.0000210000   -0.0078840000
Se      4.9525100000    8.6097400000    9.1744200000      0.0908770000    0.1686910000    0.1389280000
Se      3.2923300000   11.4849300000    5.8392200000      0.0447620000    0.0791150000    0.0245170000
Se      3.2923800000   11.4849500000    9.1744300000     -0.0420400000   -0.0831150000    0.0219620000
Se      1.6322000000    8.6094900000    9.1744700000     -0.0279590000    0.1825470000   -0.0344360000
Se      1.6321600000    8.6094500000    5.8391800000      0.0275970000   -0.1742560000   -0.0376640000
Se      6.6124500000    5.7344300000    9.1744300000     -0.0437960000   -0.0802840000   -0.1593460000
Se      6.6124100000    5.7343900000    5.8392200000      0.0378560000    0.0785220000   -0.1631490000
Se      4.9524600000    8.6097100000    5.8392700000     -0.0890980000   -0.1639620000    0.1393330000
Se     -1.6876700000    8.6097300000    5.8392200000     -0.0440920000   -0.0786900000   -0.0258730000
Se     -1.6876200000    8.6097400000    9.1744300000      0.0454150000    0.0853500000   -0.0238730000
Se      4.9522100000    2.8591600000    5.8392300000     -0.0247400000    0.0029030000    0.2274000000
Se      4.9522600000    2.8591900000    9.1744600000      0.0218280000   -0.0050230000    0.2223770000
Se      3.2921300000    5.7343900000    9.1744700000      0.0113430000   -0.1732230000   -0.1922710000
Se      3.2920800000    5.7343800000    5.8391800000     -0.0080120000    0.1672460000   -0.1920970000
Se     -0.0275400000    5.7345100000    5.8392700000      0.0889960000    0.1614900000   -0.1402630000
Se     -0.0274900000    5.7345400000    9.1744200000     -0.0908950000   -0.1711810000   -0.1396370000
Se      6.6122000000   11.4846900000    9.1744700000      0.0260720000   -0.1825620000    0.0359650000
Se      1.6324100000    2.8591900000    5.8392200000     -0.0410690000   -0.0779100000    0.1615230000
Se      1.6324500000    2.8592200000    9.1744300000      0.0422960000    0.0814870000    0.1579720000
Se      6.6121600000   11.4846600000    5.8391800000     -0.0300130000    0.1767280000    0.0391760000
Se      8.2720800000    8.6095900000    5.8391800000      0.0114250000   -0.1665080000    0.1936700000
Se      8.2721300000    8.6096000000    9.1744700000     -0.0101800000    0.1754710000    0.1938640000
Se      4.9522600000   14.3600100000    9.1744600000     -0.0236480000    0.0019300000   -0.2214890000
Se      4.9522100000   14.3599800000    5.8392300000      0.0270680000   -0.0047600000   -0.2265500000
