CRYSTAL
PRIMVEC
   9.9600000000000009   5.7504086809999997   0.0000000000000000
  -4.9800000000000004   8.6256130219999996   0.0000000000000000
   0.0000000000000000   0.0000000000000000  15.0000000000000000
PRIMCOORD
 36   1
Mo      4.9584400000   12.4467500000    7.5068200000      0.0003480000    0.0000830000   -0.0229620000
Mo      3.2983400000    9.5715300000    7.5068200000     -0.0002670000   -0.0006170000    0.4426610000
Mo      8.2784200000    6.6963700000    7.5068200000      0.0006210000    0.0004430000   -0.0109600000
Mo      6.6184700000    9.5715800000    7.5068200000      0.0002380000   -0.0007210000    0.0339130000
Mo     -1.6816600000    6.6963300000    7.5068200000      0.0003220000    0.0005700000   -0.4426520000
Mo     -0.0216400000    3.8210900000    7.5068200000     -0.0003890000   -0.0008000000    0.0590210000
Mo      1.6383900000    0.9459200000    7.5068200000     -0.0000640000    0.0007540000    0.3823620000
Mo      4.9583600000    6.6962900000    7.5068200000      0.0003800000    0.0006150000   -0.0591360000
Mo      6.6183900000    3.8211300000    7.5068200000     -0.0000260000   -0.0006150000   -0.3825310000
Mo      3.2984200000    3.8211700000    7.5068200000     -0.0004080000   -0.0005100000    0.0110110000
Mo      1.6384700000    6.6963800000    7.5068200000     -0.0000130000    0.0008150000   -0.0337370000
Mo     -0.0215600000    9.5715500000    7.5068200000     -0.0006690000   -0.0000420000    0.0230540000
Se      4.9525100000    8.6097400000    9.1744200000     -0.0585200000    0.0644980000   -0.0902700000
Se      3.2923300000   11.4849300000    5.8392200000     -0.0634920000    0.1256910000   -0.0083760000
Se      3.2923800000   11.4849500000    9.1744300000      0.0633080000   -0.1251990000   -0.0076000000
Se      1.6322000000    8.6094900000    9.1744700000      0.0685120000    0.0465050000   -0.0952050000
Se      1.6321600000    8.6094500000    5.8391800000     -0.0680350000   -0.0468210000   -0.0946120000
Se      6.6124500000    5.7344300000    9.1744300000     -0.0049230000    0.0612670000    0.0978820000
Se      6.6124100000    5.7343900000    5.8392200000      0.0045280000   -0.0612350000    0.0969540000
Se      4.9524600000    8.6097100000    5.8392700000      0.0584010000   -0.0645950000   -0.0895110000
Se     -1.6876700000    8.6097300000    5.8392200000      0.0635790000   -0.1256520000    0.0084300000
Se     -1.6876200000    8.6097400000    9.1744300000     -0.0631660000    0.1252290000    0.0075420000
Se      4.9522100000    2.8591600000    5.8392300000      0.0596650000    0.0432090000    0.0766510000
Se      4.9522600000    2.8591900000    9.1744600000     -0.0592730000   -0.0429310000    0.0765500000
Se      3.2921300000    5.7343900000    9.1744700000     -0.0089840000   -0.0035290000    0.0182840000
Se      3.2920800000    5.7343800000    5.8391800000      0.0089810000    0.0033140000    0.0174300000
Se     -0.0275400000    5.7345100000    5.8392700000     -0.0585310000    0.0645810000    0.0893430000
Se     -0.0274900000    5.7345400000    9.1744200000      0.0584030000   -0.0644310000    0.0904190000
Se      6.6122000000   11.4846900000    9.1744700000     -0.0685280000   -0.0465940000    0.0952340000
Se      1.6324100000    2.8591900000    5.8392200000     -0.0046580000    0.0611650000   -0.0968800000
Se      1.6324500000    2.8592200000    9.1744300000      0.0049560000   -0.0612840000   -0.0978910000
Se      6.6121600000   11.4846600000    5.8391800000      0.0681470000    0.0467790000    0.0944910000
Se      8.2720800000    8.6095900000    5.8391800000     -0.0089840000   -0.0032580000   -0.0174020000
Se      8.2721300000    8.6096000000    9.1744700000      0.0088920000    0.0035740000   -0.0183770000
Se      4.9522600000   14.3600100000    9.1744600000      0.0592260000    0.0429100000   -0.0766050000
Se      4.9522100000   14.3599800000    5.8392300000     -0.0596230000   -0.0431620000   -0.0765350000
