CRYSTAL
PRIMVEC
   9.9600000000000009   5.7504086809999997   0.0000000000000000
  -4.9800000000000004   8.6256130219999996   0.0000000000000000
   0.0000000000000000   0.0000000000000000  15.0000000000000000
PRIMCOORD
 36   1
Mo      4.9584400000   12.4467500000    7.5068200000      0.0668870000   -0.1458280000    0.0753050000
Mo      3.2983400000    9.5715300000    7.5068200000      0.0673900000   -0.1455350000    0.0752960000
Mo      8.2784200000    6.6963700000    7.5068200000      0.0674040000   -0.1455350000    0.0752920000
Mo      6.6184700000    9.5715800000    7.5068200000      0.0673370000   -0.1461440000    0.0753380000
Mo     -1.6816600000    6.6963300000    7.5068200000      0.0673380000   -0.1455620000    0.0753130000
Mo     -0.0216400000    3.8210900000    7.5068200000      0.0668820000   -0.1458770000    0.0753100000
Mo      1.6383900000    0.9459200000    7.5068200000      0.0673160000   -0.1461690000    0.0753080000
Mo      4.9583600000    6.6962900000    7.5068200000      0.0668910000   -0.1458630000    0.0753110000
Mo      6.6183900000    3.8211300000    7.5068200000      0.0673210000   -0.1461430000    0.0753190000
Mo      3.2984200000    3.8211700000    7.5068200000      0.0674040000   -0.1455480000    0.0753010000
Mo      1.6384700000    6.6963800000    7.5068200000      0.0673660000   -0.1461570000    0.0753250000
Mo     -0.0215600000    9.5715500000    7.5068200000      0.0668950000   -0.1458250000    0.0753350000
Se      4.9525100000    8.6097400000    9.1744200000      0.0609020000   -0.1322210000    0.0684590000
Se      3.2923300000   11.4849300000    5.8392200000      0.0607710000   -0.1325300000    0.0682230000
Se      3.2923800000   11.4849500000    9.1744300000      0.0608480000   -0.1325150000    0.0685280000
Se      1.6322000000    8.6094900000    9.1744700000      0.0612640000   -0.1323640000    0.0682150000
Se      1.6321600000    8.6094500000    5.8391800000      0.0611710000   -0.1324990000    0.0688310000
Se      6.6124500000    5.7344300000    9.1744300000      0.0613150000   -0.1323260000    0.0681940000
Se      6.6124100000    5.7343900000    5.8392200000      0.0612330000   -0.1324570000    0.0688360000
Se      4.9524600000    8.6097100000    5.8392700000      0.0608170000   -0.1322690000    0.0685920000
Se     -1.6876700000    8.6097300000    5.8392200000      0.0607570000   -0.1325570000    0.0682350000
Se     -1.6876200000    8.6097400000    9.1744300000      0.0608240000   -0.1325280000    0.0685550000
Se      4.9522100000    2.8591600000    5.8392300000      0.0607370000   -0.1322970000    0.0685750000
Se      4.9522600000    2.8591900000    9.1744600000      0.0608610000   -0.1322310000    0.0684850000
Se      3.2921300000    5.7343900000    9.1744700000      0.0607980000   -0.1325880000    0.0685520000
Se      3.2920800000    5.7343800000    5.8391800000      0.0607250000   -0.1326030000    0.0682160000
Se     -0.0275400000    5.7345100000    5.8392700000      0.0607920000   -0.1322790000    0.0685870000
Se     -0.0274900000    5.7345400000    9.1744200000      0.0609230000   -0.1322250000    0.0684550000
Se      6.6122000000   11.4846900000    9.1744700000      0.0612050000   -0.1323640000    0.0682240000
Se      1.6324100000    2.8591900000    5.8392200000      0.0612410000   -0.1324770000    0.0688460000
Se      1.6324500000    2.8592200000    9.1744300000      0.0613260000   -0.1323560000    0.0681780000
Se      6.6121600000   11.4846600000    5.8391800000      0.0611300000   -0.1325130000    0.0688470000
Se      8.2720800000    8.6095900000    5.8391800000      0.0606870000   -0.1325790000    0.0682280000
Se      8.2721300000    8.6096000000    9.1744700000      0.0607830000   -0.1325690000    0.0685470000
Se      4.9522600000   14.3600100000    9.1744600000      0.0608710000   -0.1322510000    0.0684500000
Se      4.9522100000   14.3599800000    5.8392300000      0.0607460000   -0.1323070000    0.0685460000
