CRYSTAL
PRIMVEC
   9.9600000000000009   5.7504086809999997   0.0000000000000000
  -4.9800000000000004   8.6256130219999996   0.0000000000000000
   0.0000000000000000   0.0000000000000000  15.0000000000000000
PRIMCOORD
 36   1
Mo      4.9584400000   12.4467500000    7.5068200000      0.0004420000   -0.0002090000   -0.0020150000
Mo      3.2983400000    9.5715300000    7.5068200000      0.0001460000   -0.0000680000    0.0056200000
Mo      8.2784200000    6.6963700000    7.5068200000     -0.0006750000    0.0001810000    0.0075050000
Mo      6.6184700000    9.5715800000    7.5068200000      0.0001930000    0.0003740000   -0.0046240000
Mo     -1.6816600000    6.6963300000    7.5068200000     -0.0003460000    0.0000130000   -0.0056230000
Mo     -0.0216400000    3.8210900000    7.5068200000     -0.0002340000    0.0003070000    0.0081690000
Mo      1.6383900000    0.9459200000    7.5068200000      0.0006110000   -0.0007820000   -0.0022880000
Mo      4.9583600000    6.6962900000    7.5068200000      0.0001400000   -0.0001680000   -0.0078720000
Mo      6.6183900000    3.8211300000    7.5068200000     -0.0004080000    0.0006040000    0.0023660000
Mo      3.2984200000    3.8211700000    7.5068200000      0.0001790000   -0.0001600000   -0.0076180000
Mo      1.6384700000    6.6963800000    7.5068200000      0.0001470000   -0.0005060000    0.0044120000
Mo     -0.0215600000    9.5715500000    7.5068200000     -0.0002120000    0.0002800000    0.0019130000
Se      4.9525100000    8.6097400000    9.1744200000      0.1702970000   -0.1294210000    0.0446780000
Se      3.2923300000   11.4849300000    5.8392200000      0.1135550000   -0.0606620000   -0.2252400000
Se      3.2923800000   11.4849500000    9.1744300000     -0.1086300000    0.0693730000   -0.2223620000
Se      1.6322000000    8.6094900000    9.1744700000     -0.1719600000    0.0003430000   -0.1761390000
Se      1.6321600000    8.6094500000    5.8391800000      0.1633570000   -0.0045850000   -0.1780240000
Se      6.6124500000    5.7344300000    9.1744300000     -0.0560070000    0.0590400000    0.1786970000
Se      6.6124100000    5.7343900000    5.8392200000      0.0424140000   -0.0578740000    0.1794840000
Se      4.9524600000    8.6097100000    5.8392700000     -0.1620710000    0.1196960000    0.0468500000
Se     -1.6876700000    8.6097300000    5.8392200000     -0.1103580000    0.0684180000    0.2256900000
Se     -1.6876200000    8.6097400000    9.1744300000      0.1097810000   -0.0615260000    0.2217450000
Se      4.9522100000    2.8591600000    5.8392300000     -0.0285170000   -0.0071970000    0.1316230000
Se      4.9522600000    2.8591900000    9.1744600000      0.0290880000    0.0037800000    0.1310910000
Se      3.2921300000    5.7343900000    9.1744700000      0.1481350000   -0.0053040000    0.0423800000
Se      3.2920800000    5.7343800000    5.8391800000     -0.1403420000    0.0126000000    0.0445580000
Se     -0.0275400000    5.7345100000    5.8392700000      0.1661430000   -0.1237500000   -0.0481120000
Se     -0.0274900000    5.7345400000    9.1744200000     -0.1631450000    0.1232580000   -0.0455120000
Se      6.6122000000   11.4846900000    9.1744700000      0.1640780000   -0.0016260000    0.1764620000
Se      1.6324100000    2.8591900000    5.8392200000     -0.0512290000    0.0540200000   -0.1801340000
Se      1.6324500000    2.8592200000    9.1744300000      0.0495510000   -0.0603110000   -0.1789130000
Se      6.6121600000   11.4846600000    5.8391800000     -0.1713320000    0.0016150000    0.1773190000
Se      8.2720800000    8.6095900000    5.8391800000      0.1436930000   -0.0046590000   -0.0430310000
Se      8.2721300000    8.6096000000    9.1744700000     -0.1470460000    0.0119920000   -0.0409410000
Se      4.9522600000   14.3600100000    9.1744600000     -0.0233530000   -0.0095820000   -0.1311800000
Se      4.9522100000   14.3599800000    5.8392300000      0.0338370000    0.0023730000   -0.1309300000
