CRYSTAL
PRIMVEC
   9.9600000000000009   5.7504086809999997   0.0000000000000000
  -4.9800000000000004   8.6256130219999996   0.0000000000000000
   0.0000000000000000   0.0000000000000000  15.0000000000000000
PRIMCOORD
 36   1
Mo      4.9584400000   12.4467500000    7.5068200000     -0.0006240000    0.0000850000    0.0021560000
Mo      3.2983400000    9.5715300000    7.5068200000      0.0002730000    0.0005860000   -0.0023400000
Mo      8.2784200000    6.6963700000    7.5068200000      0.0003090000    0.0006510000   -0.0022670000
Mo      6.6184700000    9.5715800000    7.5068200000      0.0006430000   -0.0009680000   -0.0000440000
Mo     -1.6816600000    6.6963300000    7.5068200000      0.0002480000    0.0006220000   -0.0020510000
Mo     -0.0216400000    3.8210900000    7.5068200000     -0.0005300000    0.0000400000    0.0024140000
Mo      1.6383900000    0.9459200000    7.5068200000      0.0005050000   -0.0009810000    0.0001720000
Mo      4.9583600000    6.6962900000    7.5068200000     -0.0005620000    0.0000100000    0.0020670000
Mo      6.6183900000    3.8211300000    7.5068200000      0.0004900000   -0.0009610000   -0.0002370000
Mo      3.2984200000    3.8211700000    7.5068200000      0.0003100000    0.0006430000   -0.0021880000
Mo      1.6384700000    6.6963800000    7.5068200000      0.0004420000   -0.0009990000    0.0000610000
Mo     -0.0215600000    9.5715500000    7.5068200000     -0.0006800000    0.0000840000    0.0022340000
Se      4.9525100000    8.6097400000    9.1744200000     -0.0132050000    0.0203050000    0.0045420000
Se      3.2923300000   11.4849300000    5.8392200000     -0.0289900000   -0.0070410000    0.2447190000
Se      3.2923800000   11.4849500000    9.1744300000      0.0301690000    0.0021390000    0.2448860000
Se      1.6322000000    8.6094900000    9.1744700000     -0.0178210000   -0.0217220000   -0.2502640000
Se      1.6321600000    8.6094500000    5.8391800000      0.0218100000    0.0242400000   -0.2497100000
Se      6.6124500000    5.7344300000    9.1744300000     -0.0172490000   -0.0212380000   -0.2511690000
Se      6.6124100000    5.7343900000    5.8392200000      0.0210140000    0.0238710000   -0.2508840000
Se      4.9524600000    8.6097100000    5.8392700000      0.0080910000   -0.0182830000    0.0046040000
Se     -1.6876700000    8.6097300000    5.8392200000     -0.0280900000   -0.0067800000    0.2456610000
Se     -1.6876200000    8.6097400000    9.1744300000      0.0291100000    0.0020090000    0.2460090000
Se      4.9522100000    2.8591600000    5.8392300000      0.0085760000   -0.0173000000    0.0046020000
Se      4.9522600000    2.8591900000    9.1744600000     -0.0134590000    0.0194560000    0.0048700000
Se      3.2921300000    5.7343900000    9.1744700000      0.0284120000    0.0016200000    0.2451720000
Se      3.2920800000    5.7343800000    5.8391800000     -0.0272410000   -0.0061160000    0.2450530000
Se     -0.0275400000    5.7345100000    5.8392700000      0.0079560000   -0.0175820000    0.0054920000
Se     -0.0274900000    5.7345400000    9.1744200000     -0.0128480000    0.0196360000    0.0056670000
Se      6.6122000000   11.4846900000    9.1744700000     -0.0160360000   -0.0205330000   -0.2503670000
Se      1.6324100000    2.8591900000    5.8392200000      0.0216790000    0.0241770000   -0.2495050000
Se      1.6324500000    2.8592200000    9.1744300000     -0.0179270000   -0.0216240000   -0.2498730000
Se      6.6121600000   11.4846600000    5.8391800000      0.0197350000    0.0231520000   -0.2500170000
Se      8.2720800000    8.6095900000    5.8391800000     -0.0280410000   -0.0074040000    0.2450880000
Se      8.2721300000    8.6096000000    9.1744700000      0.0294150000    0.0026690000    0.2454520000
Se      4.9522600000   14.3600100000    9.1744600000     -0.0122730000    0.0204550000    0.0050820000
Se      4.9522100000   14.3599800000    5.8392300000      0.0074010000   -0.0182910000    0.0048820000
