CRYSTAL
PRIMVEC
   9.9600000000000009   5.7504086809999997   0.0000000000000000
  -4.9800000000000004   8.6256130219999996   0.0000000000000000
   0.0000000000000000   0.0000000000000000  15.0000000000000000
PRIMCOORD
 36   1
Mo      4.9584400000   12.4467500000    7.5068200000      0.0016240000    0.0012540000   -0.1571750000
Mo      3.2983400000    9.5715300000    7.5068200000      0.0008950000   -0.0012660000   -0.1901990000
Mo      8.2784200000    6.6963700000    7.5068200000      0.0009750000   -0.0010800000   -0.1894770000
Mo      6.6184700000    9.5715800000    7.5068200000      0.0016030000    0.0006900000    0.3463900000
Mo     -1.6816600000    6.6963300000    7.5068200000     -0.0002420000   -0.0006750000   -0.1902220000
Mo     -0.0216400000    3.8210900000    7.5068200000     -0.0021040000    0.0004240000   -0.1577900000
Mo      1.6383900000    0.9459200000    7.5068200000      0.0015310000    0.0006390000    0.3478890000
Mo      4.9583600000    6.6962900000    7.5068200000     -0.0015630000    0.0008830000   -0.1578250000
Mo      6.6183900000    3.8211300000    7.5068200000      0.0022130000    0.0017920000    0.3478820000
Mo      3.2984200000    3.8211700000    7.5068200000     -0.0017480000   -0.0011470000   -0.1895410000
Mo      1.6384700000    6.6963800000    7.5068200000      0.0004130000   -0.0006390000    0.3465110000
Mo     -0.0215600000    9.5715500000    7.5068200000     -0.0012510000    0.0020580000   -0.1572400000
Se      4.9525100000    8.6097400000    9.1744200000      0.0910870000    0.0456020000   -0.0045100000
Se      3.2923300000   11.4849300000    5.8392200000      0.0891460000   -0.0626720000    0.0015320000
Se      3.2923800000   11.4849500000    9.1744300000     -0.0909880000    0.0628900000    0.0025310000
Se      1.6322000000    8.6094900000    9.1744700000     -0.0012890000   -0.1085250000    0.0036260000
Se      1.6321600000    8.6094500000    5.8391800000      0.0020870000    0.1083860000    0.0018800000
Se      6.6124500000    5.7344300000    9.1744300000     -0.0017680000   -0.1095410000    0.0024880000
Se      6.6124100000    5.7343900000    5.8392200000      0.0021050000    0.1083360000    0.0023700000
Se      4.9524600000    8.6097100000    5.8392700000     -0.0923780000   -0.0464330000   -0.0042080000
Se     -1.6876700000    8.6097300000    5.8392200000      0.0899340000   -0.0626360000    0.0023250000
Se     -1.6876200000    8.6097400000    9.1744300000     -0.0902330000    0.0629140000    0.0018120000
Se      4.9522100000    2.8591600000    5.8392300000     -0.0913430000   -0.0468160000   -0.0056100000
Se      4.9522600000    2.8591900000    9.1744600000      0.0906700000    0.0444550000   -0.0042730000
Se      3.2921300000    5.7343900000    9.1744700000     -0.0891580000    0.0633410000    0.0019600000
Se      3.2920800000    5.7343800000    5.8391800000      0.0899900000   -0.0620740000    0.0026810000
Se     -0.0275400000    5.7345100000    5.8392700000     -0.0916720000   -0.0461870000   -0.0042510000
Se     -0.0274900000    5.7345400000    9.1744200000      0.0917800000    0.0458560000   -0.0044920000
Se      6.6122000000   11.4846900000    9.1744700000     -0.0019640000   -0.1085110000    0.0021670000
Se      1.6324100000    2.8591900000    5.8392200000      0.0029360000    0.1088620000    0.0026820000
Se      1.6324500000    2.8592200000    9.1744300000     -0.0009720000   -0.1090190000    0.0021600000
Se      6.6121600000   11.4846600000    5.8391800000      0.0014360000    0.1083350000    0.0033530000
Se      8.2720800000    8.6095900000    5.8391800000      0.0896230000   -0.0620920000    0.0030870000
Se      8.2721300000    8.6096000000    9.1744700000     -0.0894910000    0.0632710000    0.0015710000
Se      4.9522600000   14.3600100000    9.1744600000      0.0899660000    0.0451370000   -0.0052190000
Se      4.9522100000   14.3599800000    5.8392300000     -0.0920300000   -0.0461190000   -0.0046930000
