CRYSTAL
PRIMVEC
   9.9600000000000009   5.7504086809999997   0.0000000000000000
  -4.9800000000000004   8.6256130219999996   0.0000000000000000
   0.0000000000000000   0.0000000000000000  15.0000000000000000
PRIMCOORD
 36   1
Mo      4.9584400000   12.4467500000    7.5068200000      0.0000770000   -0.0001870000   -0.3337610000
Mo      3.2983400000    9.5715300000    7.5068200000     -0.0001410000    0.0000950000    0.0105430000
Mo      8.2784200000    6.6963700000    7.5068200000     -0.0000130000   -0.0000610000   -0.3337010000
Mo      6.6184700000    9.5715800000    7.5068200000     -0.0004120000   -0.0002820000   -0.3346270000
Mo     -1.6816600000    6.6963300000    7.5068200000     -0.0005030000   -0.0000760000   -0.0105870000
Mo     -0.0216400000    3.8210900000    7.5068200000     -0.0001260000   -0.0000760000   -0.0106170000
Mo      1.6383900000    0.9459200000    7.5068200000     -0.0001310000   -0.0001660000   -0.0106470000
Mo      4.9583600000    6.6962900000    7.5068200000      0.0001470000    0.0001200000    0.0106400000
Mo      6.6183900000    3.8211300000    7.5068200000      0.0001500000    0.0000950000    0.0106300000
Mo      3.2984200000    3.8211700000    7.5068200000     -0.0000010000    0.0001650000    0.3337580000
Mo      1.6384700000    6.6963800000    7.5068200000      0.0003770000    0.0001470000    0.3346720000
Mo     -0.0215600000    9.5715500000    7.5068200000      0.0002230000    0.0002630000    0.3337530000
Se      4.9525100000    8.6097400000    9.1744200000     -0.0398420000   -0.0230910000    0.0611610000
Se      3.2923300000   11.4849300000    5.8392200000      0.0399550000    0.0228570000    0.0612270000
Se      3.2923800000   11.4849500000    9.1744300000     -0.0399110000   -0.0228830000    0.0611780000
Se      1.6322000000    8.6094900000    9.1744700000     -0.0385700000   -0.0225380000   -0.1403290000
Se      1.6321600000    8.6094500000    5.8391800000      0.0386020000    0.0224040000   -0.1400450000
Se      6.6124500000    5.7344300000    9.1744300000     -0.0398090000   -0.0230560000    0.0611180000
Se      6.6124100000    5.7343900000    5.8392200000      0.0397910000    0.0231250000    0.0611890000
Se      4.9524600000    8.6097100000    5.8392700000      0.0402150000    0.0231360000    0.0614400000
Se     -1.6876700000    8.6097300000    5.8392200000     -0.0400220000   -0.0228900000   -0.0612630000
Se     -1.6876200000    8.6097400000    9.1744300000      0.0398820000    0.0228620000   -0.0611120000
Se      4.9522100000    2.8591600000    5.8392300000      0.0385170000    0.0221830000   -0.1398140000
Se      4.9522600000    2.8591900000    9.1744600000     -0.0386030000   -0.0223580000   -0.1398870000
Se      3.2921300000    5.7343900000    9.1744700000     -0.0387980000   -0.0220970000   -0.1403460000
Se      3.2920800000    5.7343800000    5.8391800000      0.0386270000    0.0222040000   -0.1400620000
Se     -0.0275400000    5.7345100000    5.8392700000     -0.0400700000   -0.0231760000   -0.0615010000
Se     -0.0274900000    5.7345400000    9.1744200000      0.0400680000    0.0230480000   -0.0611310000
Se      6.6122000000   11.4846900000    9.1744700000      0.0386310000    0.0226010000    0.1402260000
Se      1.6324100000    2.8591900000    5.8392200000     -0.0398650000   -0.0231240000   -0.0612520000
Se      1.6324500000    2.8592200000    9.1744300000      0.0398240000    0.0230710000   -0.0610960000
Se      6.6121600000   11.4846600000    5.8391800000     -0.0384830000   -0.0223230000    0.1401740000
Se      8.2720800000    8.6095900000    5.8391800000     -0.0386530000   -0.0222060000    0.1400690000
Se      8.2721300000    8.6096000000    9.1744700000      0.0387660000    0.0220850000    0.1402680000
Se      4.9522600000   14.3600100000    9.1744600000      0.0385920000    0.0223350000    0.1399190000
Se      4.9522100000   14.3599800000    5.8392300000     -0.0385240000   -0.0222080000    0.1398070000
