CRYSTAL
PRIMVEC
   9.9600000000000009   5.7504086809999997   0.0000000000000000
  -4.9800000000000004   8.6256130219999996   0.0000000000000000
   0.0000000000000000   0.0000000000000000  15.0000000000000000
PRIMCOORD
 36   1
Mo      4.9584400000   12.4467500000    7.5068200000      0.0002090000    0.0002720000    0.0079600000
Mo      3.2983400000    9.5715300000    7.5068200000     -0.0002120000   -0.0001270000    0.0310630000
Mo      8.2784200000    6.6963700000    7.5068200000     -0.0001220000   -0.0002010000   -0.0090580000
Mo      6.6184700000    9.5715800000    7.5068200000      0.0001050000    0.0001820000    0.0010170000
Mo     -1.6816600000    6.6963300000    7.5068200000      0.0000800000    0.0000720000   -0.0311150000
Mo     -0.0216400000    3.8210900000    7.5068200000     -0.0001800000    0.0003350000    0.0280640000
Mo      1.6383900000    0.9459200000    7.5068200000      0.0000820000   -0.0004170000    0.0032150000
Mo      4.9583600000    6.6962900000    7.5068200000      0.0001630000   -0.0003860000   -0.0280050000
Mo      6.6183900000    3.8211300000    7.5068200000     -0.0001050000    0.0003990000   -0.0031320000
Mo      3.2984200000    3.8211700000    7.5068200000      0.0001330000    0.0002130000    0.0091030000
Mo      1.6384700000    6.6963800000    7.5068200000     -0.0000340000   -0.0000570000   -0.0010820000
Mo     -0.0215600000    9.5715500000    7.5068200000     -0.0001170000   -0.0002970000   -0.0080120000
Se      4.9525100000    8.6097400000    9.1744200000     -0.0241220000   -0.0206360000    0.0063940000
Se      3.2923300000   11.4849300000    5.8392200000      0.2602430000    0.0651920000    0.0556680000
Se      3.2923800000   11.4849500000    9.1744300000     -0.2600780000   -0.0641800000    0.0551940000
Se      1.6322000000    8.6094900000    9.1744700000      0.0320500000   -0.0658800000    0.0103060000
Se      1.6321600000    8.6094500000    5.8391800000     -0.0322330000    0.0650500000    0.0101870000
Se      6.6124500000    5.7344300000    9.1744300000      0.2178350000    0.2002650000   -0.0624120000
Se      6.6124100000    5.7343900000    5.8392200000     -0.2177310000   -0.2002840000   -0.0625390000
Se      4.9524600000    8.6097100000    5.8392700000      0.0237610000    0.0196060000    0.0063930000
Se     -1.6876700000    8.6097300000    5.8392200000     -0.2602910000   -0.0649110000   -0.0554860000
Se     -1.6876200000    8.6097400000    9.1744300000      0.2603600000    0.0639750000   -0.0550780000
Se      4.9522100000    2.8591600000    5.8392300000      0.1266520000   -0.2180120000   -0.0009090000
Se      4.9522600000    2.8591900000    9.1744600000     -0.1267310000    0.2181970000   -0.0006470000
Se      3.2921300000    5.7343900000    9.1744700000      0.0595220000   -0.0941070000   -0.0095280000
Se      3.2920800000    5.7343800000    5.8391800000     -0.0596480000    0.0944610000   -0.0092990000
Se     -0.0275400000    5.7345100000    5.8392700000     -0.0236000000   -0.0199160000   -0.0066500000
Se     -0.0274900000    5.7345400000    9.1744200000      0.0237550000    0.0206530000   -0.0063600000
Se      6.6122000000   11.4846900000    9.1744700000     -0.0322930000    0.0660460000   -0.0098040000
Se      1.6324100000    2.8591900000    5.8392200000      0.2176140000    0.2002480000    0.0626520000
Se      1.6324500000    2.8592200000    9.1744300000     -0.2178130000   -0.2000730000    0.0620370000
Se      6.6121600000   11.4846600000    5.8391800000      0.0323950000   -0.0647430000   -0.0102990000
Se      8.2720800000    8.6095900000    5.8391800000      0.0601680000   -0.0947880000    0.0093440000
Se      8.2721300000    8.6096000000    9.1744700000     -0.0595890000    0.0941890000    0.0096100000
Se      4.9522600000   14.3600100000    9.1744600000      0.1267700000   -0.2184440000    0.0003290000
Se      4.9522100000   14.3599800000    5.8392300000     -0.1269870000    0.2181040000    0.0008820000
