CRYSTAL
PRIMVEC
   9.9600000000000009   5.7504086809999997   0.0000000000000000
  -4.9800000000000004   8.6256130219999996   0.0000000000000000
   0.0000000000000000   0.0000000000000000  15.0000000000000000
PRIMCOORD
 36   1
Mo      4.9584400000   12.4467500000    7.5068200000     -0.0002450000    0.0001120000   -0.0067660000
Mo      3.2983400000    9.5715300000    7.5068200000     -0.0002380000    0.0002390000    0.0126950000
Mo      8.2784200000    6.6963700000    7.5068200000     -0.0000390000   -0.0005060000   -0.0036960000
Mo      6.6184700000    9.5715800000    7.5068200000     -0.0002770000    0.0000720000    0.0107720000
Mo     -1.6816600000    6.6963300000    7.5068200000      0.0003610000   -0.0001040000   -0.0129030000
Mo     -0.0216400000    3.8210900000    7.5068200000      0.0001680000    0.0005270000   -0.0181440000
Mo      1.6383900000    0.9459200000    7.5068200000     -0.0001360000   -0.0001770000    0.0335880000
Mo      4.9583600000    6.6962900000    7.5068200000      0.0000600000   -0.0004200000    0.0181280000
Mo      6.6183900000    3.8211300000    7.5068200000      0.0002180000    0.0002740000   -0.0334210000
Mo      3.2984200000    3.8211700000    7.5068200000     -0.0000950000    0.0004210000    0.0037860000
Mo      1.6384700000    6.6963800000    7.5068200000     -0.0000320000   -0.0001910000   -0.0107620000
Mo     -0.0215600000    9.5715500000    7.5068200000      0.0001730000   -0.0002390000    0.0067950000
Se      4.9525100000    8.6097400000    9.1744200000     -0.2807950000   -0.1530490000    0.0648110000
Se      3.2923300000   11.4849300000    5.8392200000     -0.1443130000   -0.1266120000   -0.0416840000
Se      3.2923800000   11.4849500000    9.1744300000      0.1439090000    0.1267280000   -0.0409150000
Se      1.6322000000    8.6094900000    9.1744700000     -0.1120020000    0.1700460000    0.0035470000
Se      1.6321600000    8.6094500000    5.8391800000      0.1121740000   -0.1704870000    0.0038840000
Se      6.6124500000    5.7344300000    9.1744300000      0.1433930000    0.0225770000   -0.0285530000
Se      6.6124100000    5.7343900000    5.8392200000     -0.1432250000   -0.0228460000   -0.0294890000
Se      4.9524600000    8.6097100000    5.8392700000      0.2800430000    0.1527040000    0.0648500000
Se     -1.6876700000    8.6097300000    5.8392200000      0.1431850000    0.1266650000    0.0409080000
Se     -1.6876200000    8.6097400000    9.1744300000     -0.1424940000   -0.1269190000    0.0405570000
Se      4.9522100000    2.8591600000    5.8392300000     -0.0203480000    0.0231680000   -0.0077670000
Se      4.9522600000    2.8591900000    9.1744600000      0.0201180000   -0.0231040000   -0.0086300000
Se      3.2921300000    5.7343900000    9.1744700000      0.0997570000   -0.1747250000    0.0027190000
Se      3.2920800000    5.7343800000    5.8391800000     -0.1002210000    0.1747380000    0.0025470000
Se     -0.0275400000    5.7345100000    5.8392700000     -0.2791610000   -0.1518700000   -0.0648100000
Se     -0.0274900000    5.7345400000    9.1744200000      0.2794970000    0.1521590000   -0.0645390000
Se      6.6122000000   11.4846900000    9.1744700000      0.1116650000   -0.1700310000   -0.0033170000
Se      1.6324100000    2.8591900000    5.8392200000      0.1431920000    0.0227550000    0.0295820000
Se      1.6324500000    2.8592200000    9.1744300000     -0.1429160000   -0.0220310000    0.0287630000
Se      6.6121600000   11.4846600000    5.8391800000     -0.1115070000    0.1705840000   -0.0035460000
Se      8.2720800000    8.6095900000    5.8391800000      0.1015720000   -0.1746170000   -0.0029080000
Se      8.2721300000    8.6096000000    9.1744700000     -0.1011110000    0.1742920000   -0.0035180000
Se      4.9522600000   14.3600100000    9.1744600000     -0.0191580000    0.0239910000    0.0090580000
Se      4.9522100000   14.3599800000    5.8392300000      0.0187280000   -0.0241180000    0.0083670000
