CRYSTAL
PRIMVEC
   9.9600000000000009   5.7504086809999997   0.0000000000000000
  -4.9800000000000004   8.6256130219999996   0.0000000000000000
   0.0000000000000000   0.0000000000000000  15.0000000000000000
PRIMCOORD
 36   1
Mo      4.9584400000   12.4467500000    7.5068200000      0.1556190000    0.0824120000    0.0204680000
Mo      3.2983400000    9.5715300000    7.5068200000      0.1562160000    0.0825670000    0.0204890000
Mo      8.2784200000    6.6963700000    7.5068200000      0.1557890000    0.0823030000    0.0204770000
Mo      6.6184700000    9.5715800000    7.5068200000      0.1553400000    0.0820340000    0.0205200000
Mo     -1.6816600000    6.6963300000    7.5068200000      0.1560980000    0.0825100000    0.0205250000
Mo     -0.0216400000    3.8210900000    7.5068200000      0.1560820000    0.0825670000    0.0204880000
Mo      1.6383900000    0.9459200000    7.5068200000      0.1557510000    0.0822700000    0.0204450000
Mo      4.9583600000    6.6962900000    7.5068200000      0.1560950000    0.0825890000    0.0204940000
Mo      6.6183900000    3.8211300000    7.5068200000      0.1557570000    0.0823280000    0.0204710000
Mo      3.2984200000    3.8211700000    7.5068200000      0.1557970000    0.0822730000    0.0204940000
Mo      1.6384700000    6.6963800000    7.5068200000      0.1554190000    0.0820020000    0.0204870000
Mo     -0.0215600000    9.5715500000    7.5068200000      0.1556450000    0.0824090000    0.0205380000
Se      4.9525100000    8.6097400000    9.1744200000      0.1409250000    0.0744840000    0.0190000000
Se      3.2923300000   11.4849300000    5.8392200000      0.1410150000    0.0749120000    0.0184760000
Se      3.2923800000   11.4849500000    9.1744300000      0.1410250000    0.0749610000    0.0187820000
Se      1.6322000000    8.6094900000    9.1744700000      0.1419690000    0.0746540000    0.0185590000
Se      1.6321600000    8.6094500000    5.8391800000      0.1419450000    0.0746520000    0.0188020000
Se      6.6124500000    5.7344300000    9.1744300000      0.1413690000    0.0743480000    0.0187740000
Se      6.6124100000    5.7343900000    5.8392200000      0.1413560000    0.0743590000    0.0185480000
Se      4.9524600000    8.6097100000    5.8392700000      0.1409950000    0.0744900000    0.0182970000
Se     -1.6876700000    8.6097300000    5.8392200000      0.1409870000    0.0748540000    0.0184880000
Se     -1.6876200000    8.6097400000    9.1744300000      0.1409770000    0.0749320000    0.0188550000
Se      4.9522100000    2.8591600000    5.8392300000      0.1415370000    0.0748620000    0.0185230000
Se      4.9522600000    2.8591900000    9.1744600000      0.1415520000    0.0748890000    0.0187830000
Se      3.2921300000    5.7343900000    9.1744700000      0.1416530000    0.0751910000    0.0185830000
Se      3.2920800000    5.7343800000    5.8391800000      0.1416560000    0.0751520000    0.0187270000
Se     -0.0275400000    5.7345100000    5.8392700000      0.1409450000    0.0744760000    0.0182750000
Se     -0.0274900000    5.7345400000    9.1744200000      0.1409790000    0.0744830000    0.0189970000
Se      6.6122000000   11.4846900000    9.1744700000      0.1418290000    0.0746560000    0.0185750000
Se      1.6324100000    2.8591900000    5.8392200000      0.1413820000    0.0743220000    0.0185620000
Se      1.6324500000    2.8592200000    9.1744300000      0.1414020000    0.0742890000    0.0187420000
Se      6.6121600000   11.4846600000    5.8391800000      0.1418430000    0.0746220000    0.0188430000
Se      8.2720800000    8.6095900000    5.8391800000      0.1415640000    0.0752150000    0.0187520000
Se      8.2721300000    8.6096000000    9.1744700000      0.1416140000    0.0752430000    0.0185740000
Se      4.9522600000   14.3600100000    9.1744600000      0.1415740000    0.0748410000    0.0187100000
Se      4.9522100000   14.3599800000    5.8392300000      0.1415560000    0.0748380000    0.0184490000
