CRYSTAL
PRIMVEC
   9.9600000000000009   5.7504086809999997   0.0000000000000000
  -4.9800000000000004   8.6256130219999996   0.0000000000000000
   0.0000000000000000   0.0000000000000000  15.0000000000000000
PRIMCOORD
 36   1
Mo      4.9584400000   12.4467500000    7.5068200000      0.1281460000   -0.0607870000   -0.0000830000
Mo      3.2983400000    9.5715300000    7.5068200000      0.2553700000   -0.1295270000    0.0010850000
Mo      8.2784200000    6.6963700000    7.5068200000     -0.0272290000   -0.0703260000   -0.0003360000
Mo      6.6184700000    9.5715800000    7.5068200000     -0.0811490000    0.1011390000    0.0006230000
Mo     -1.6816600000    6.6963300000    7.5068200000     -0.2498070000    0.1274210000   -0.0007740000
Mo     -0.0216400000    3.8210900000    7.5068200000      0.0375750000    0.2402520000    0.0009230000
Mo      1.6383900000    0.9459200000    7.5068200000      0.1992700000   -0.3401700000   -0.0004030000
Mo      4.9583600000    6.6962900000    7.5068200000     -0.0421100000   -0.2370460000   -0.0000880000
Mo      6.6183900000    3.8211300000    7.5068200000     -0.1987660000    0.3396610000   -0.0007040000
Mo      3.2984200000    3.8211700000    7.5068200000      0.0247210000    0.0668470000    0.0005320000
Mo      1.6384700000    6.6963800000    7.5068200000      0.0835540000   -0.0968450000   -0.0013930000
Mo     -0.0215600000    9.5715500000    7.5068200000     -0.1280190000    0.0576000000    0.0007740000
Se      4.9525100000    8.6097400000    9.1744200000     -0.0500800000    0.0909530000   -0.0191350000
Se      3.2923300000   11.4849300000    5.8392200000      0.0203840000   -0.0259100000   -0.1479630000
Se      3.2923800000   11.4849500000    9.1744300000      0.0209430000   -0.0267270000    0.1483620000
Se      1.6322000000    8.6094900000    9.1744700000     -0.0317790000    0.0040840000    0.1092990000
Se      1.6321600000    8.6094500000    5.8391800000     -0.0319530000    0.0030070000   -0.1087760000
Se      6.6124500000    5.7344300000    9.1744300000      0.0199150000   -0.0485920000   -0.1284790000
Se      6.6124100000    5.7343900000    5.8392200000      0.0201290000   -0.0486300000    0.1283350000
Se      4.9524600000    8.6097100000    5.8392700000     -0.0499200000    0.0905130000    0.0184460000
Se     -1.6876700000    8.6097300000    5.8392200000     -0.0209670000    0.0272310000    0.1480000000
Se     -1.6876200000    8.6097400000    9.1744300000     -0.0209440000    0.0278320000   -0.1483760000
Se      4.9522100000    2.8591600000    5.8392300000      0.0322330000   -0.0577690000    0.0124980000
Se      4.9522600000    2.8591900000    9.1744600000      0.0316960000   -0.0581150000   -0.0127900000
Se      3.2921300000    5.7343900000    9.1744700000      0.0074600000    0.0432920000   -0.0957660000
Se      3.2920800000    5.7343800000    5.8391800000      0.0074410000    0.0437660000    0.0955010000
Se     -0.0275400000    5.7345100000    5.8392700000      0.0477430000   -0.0911630000   -0.0172010000
Se     -0.0274900000    5.7345400000    9.1744200000      0.0477430000   -0.0919920000    0.0177180000
Se      6.6122000000   11.4846900000    9.1744700000      0.0301880000   -0.0049470000   -0.1099380000
Se      1.6324100000    2.8591900000    5.8392200000     -0.0175000000    0.0480830000   -0.1288410000
Se      1.6324500000    2.8592200000    9.1744300000     -0.0176490000    0.0486770000    0.1290340000
Se      6.6121600000   11.4846600000    5.8391800000      0.0304020000   -0.0043680000    0.1093170000
Se      8.2720800000    8.6095900000    5.8391800000     -0.0068760000   -0.0428890000   -0.0958900000
Se      8.2721300000    8.6096000000    9.1744700000     -0.0062890000   -0.0425070000    0.0960320000
Se      4.9522600000   14.3600100000    9.1744600000     -0.0321100000    0.0590190000    0.0138950000
Se      4.9522100000   14.3599800000    5.8392300000     -0.0319460000    0.0591000000   -0.0134580000
