CRYSTAL
PRIMVEC
   9.9600000000000009   5.7504086809999997   0.0000000000000000
  -4.9800000000000004   8.6256130219999996   0.0000000000000000
   0.0000000000000000   0.0000000000000000  15.0000000000000000
PRIMCOORD
 36   1
Mo      4.9584400000   12.4467500000    7.5068200000     -0.1115910000    0.0526690000    0.0005260000
Mo      3.2983400000    9.5715300000    7.5068200000      0.2296620000    0.1065760000   -0.0008160000
Mo      8.2784200000    6.6963700000    7.5068200000      0.0428670000    0.0775700000   -0.0021650000
Mo      6.6184700000    9.5715800000    7.5068200000      0.0715530000   -0.1346300000    0.0013150000
Mo     -1.6816600000    6.6963300000    7.5068200000     -0.2285640000   -0.1080430000    0.0006160000
Mo     -0.0216400000    3.8210900000    7.5068200000      0.1581910000    0.1194930000    0.0005360000
Mo      1.6383900000    0.9459200000    7.5068200000      0.0697270000   -0.0119760000   -0.0007520000
Mo      4.9583600000    6.6962900000    7.5068200000     -0.1568890000   -0.1207760000   -0.0006340000
Mo      6.6183900000    3.8211300000    7.5068200000     -0.0694770000    0.0098320000    0.0009780000
Mo      3.2984200000    3.8211700000    7.5068200000     -0.0440650000   -0.0760690000    0.0022350000
Mo      1.6384700000    6.6963800000    7.5068200000     -0.0717860000    0.1368130000   -0.0011480000
Mo     -0.0215600000    9.5715500000    7.5068200000      0.1102510000   -0.0514520000   -0.0007410000
Se      4.9525100000    8.6097400000    9.1744200000      0.1067420000   -0.1563530000    0.0057460000
Se      3.2923300000   11.4849300000    5.8392200000     -0.0547340000    0.1094720000   -0.0212390000
Se      3.2923800000   11.4849500000    9.1744300000     -0.0542110000    0.1080900000    0.0223790000
Se      1.6322000000    8.6094900000    9.1744700000      0.2188530000    0.1395030000    0.0004000000
Se      1.6321600000    8.6094500000    5.8391800000      0.2191340000    0.1400130000   -0.0032970000
Se      6.6124500000    5.7344300000    9.1744300000     -0.0487920000    0.0427570000   -0.0284990000
Se      6.6124100000    5.7343900000    5.8392200000     -0.0496940000    0.0407740000    0.0268260000
Se      4.9524600000    8.6097100000    5.8392700000      0.1083080000   -0.1556360000   -0.0060920000
Se     -1.6876700000    8.6097300000    5.8392200000      0.0550450000   -0.1114450000    0.0210040000
Se     -1.6876200000    8.6097400000    9.1744300000      0.0548530000   -0.1102650000   -0.0221340000
Se      4.9522100000    2.8591600000    5.8392300000     -0.0241960000   -0.0645400000    0.0007180000
Se      4.9522600000    2.8591900000    9.1744600000     -0.0229460000   -0.0664160000    0.0017260000
Se      3.2921300000    5.7343900000    9.1744700000     -0.1998240000   -0.0647780000   -0.0023560000
Se      3.2920800000    5.7343800000    5.8391800000     -0.1997210000   -0.0672710000    0.0030450000
Se     -0.0275400000    5.7345100000    5.8392700000     -0.1065360000    0.1544620000    0.0061510000
Se     -0.0274900000    5.7345400000    9.1744200000     -0.1053550000    0.1551270000   -0.0060830000
Se      6.6122000000   11.4846900000    9.1744700000     -0.2196130000   -0.1372500000   -0.0001800000
Se      1.6324100000    2.8591900000    5.8392200000      0.0505460000   -0.0428140000   -0.0266220000
Se      1.6324500000    2.8592200000    9.1744300000      0.0494820000   -0.0445760000    0.0284010000
Se      6.6121600000   11.4846600000    5.8391800000     -0.2197330000   -0.1381020000    0.0032420000
Se      8.2720800000    8.6095900000    5.8391800000      0.1991430000    0.0691500000   -0.0028280000
Se      8.2721300000    8.6096000000    9.1744700000      0.1993950000    0.0666610000    0.0022000000
Se      4.9522600000   14.3600100000    9.1744600000      0.0211140000    0.0674940000   -0.0016360000
Se      4.9522100000   14.3599800000    5.8392300000      0.0224120000    0.0659330000   -0.0008090000
