CRYSTAL
PRIMVEC
   9.9600000000000009   5.7504086809999997   0.0000000000000000
  -4.9800000000000004   8.6256130219999996   0.0000000000000000
   0.0000000000000000   0.0000000000000000  15.0000000000000000
PRIMCOORD
 36   1
Mo      4.9584400000   12.4467500000    7.5068200000     -0.1722550000   -0.1022160000    0.0005070000
Mo      3.2983400000    9.5715300000    7.5068200000     -0.1738360000   -0.0936370000   -0.0003630000
Mo      8.2784200000    6.6963700000    7.5068200000      0.1693030000    0.0900230000   -0.0003590000
Mo      6.6184700000    9.5715800000    7.5068200000     -0.0313550000    0.0709240000    0.0000530000
Mo     -1.6816600000    6.6963300000    7.5068200000     -0.1736910000   -0.0933620000    0.0003170000
Mo     -0.0216400000    3.8210900000    7.5068200000      0.1774590000    0.1035740000   -0.0006580000
Mo      1.6383900000    0.9459200000    7.5068200000      0.0297020000   -0.0692710000   -0.0001660000
Mo      4.9583600000    6.6962900000    7.5068200000      0.1772210000    0.1040250000   -0.0002340000
Mo      6.6183900000    3.8211300000    7.5068200000      0.0308860000   -0.0692710000    0.0001440000
Mo      3.2984200000    3.8211700000    7.5068200000      0.1705140000    0.0904100000    0.0000990000
Mo      1.6384700000    6.6963800000    7.5068200000     -0.0313560000    0.0703760000    0.0000650000
Mo     -0.0215600000    9.5715500000    7.5068200000     -0.1726570000   -0.1016280000    0.0005360000
Se      4.9525100000    8.6097400000    9.1744200000     -0.0229460000    0.0540340000   -0.0022830000
Se      3.2923300000   11.4849300000    5.8392200000     -0.1279870000   -0.1467620000   -0.0432070000
Se      3.2923800000   11.4849500000    9.1744300000     -0.1283700000   -0.1473050000    0.0431940000
Se      1.6322000000    8.6094900000    9.1744700000     -0.1903880000   -0.0315800000    0.0438750000
Se      1.6321600000    8.6094500000    5.8391800000     -0.1909620000   -0.0313880000   -0.0438010000
Se      6.6124500000    5.7344300000    9.1744300000      0.1876950000    0.0292510000   -0.0412530000
Se      6.6124100000    5.7343900000    5.8392200000      0.1875480000    0.0287270000    0.0410650000
Se      4.9524600000    8.6097100000    5.8392700000     -0.0227800000    0.0541030000    0.0017000000
Se     -1.6876700000    8.6097300000    5.8392200000     -0.1286770000   -0.1462940000   -0.0429840000
Se     -1.6876200000    8.6097400000    9.1744300000     -0.1293590000   -0.1461820000    0.0434500000
Se      4.9522100000    2.8591600000    5.8392300000      0.0225800000   -0.0525100000   -0.0018610000
Se      4.9522600000    2.8591900000    9.1744600000      0.0223810000   -0.0521000000    0.0026230000
Se      3.2921300000    5.7343900000    9.1744700000      0.1322300000    0.1478700000   -0.0457760000
Se      3.2920800000    5.7343800000    5.8391800000      0.1318450000    0.1477420000    0.0459280000
Se     -0.0275400000    5.7345100000    5.8392700000     -0.0228940000    0.0537590000    0.0018980000
Se     -0.0274900000    5.7345400000    9.1744200000     -0.0226370000    0.0530310000   -0.0022060000
Se      6.6122000000   11.4846900000    9.1744700000     -0.1901530000   -0.0314950000    0.0447270000
Se      1.6324100000    2.8591900000    5.8392200000      0.1886270000    0.0289880000    0.0412660000
Se      1.6324500000    2.8592200000    9.1744300000      0.1880330000    0.0292070000   -0.0418430000
Se      6.6121600000   11.4846600000    5.8391800000     -0.1903080000   -0.0310600000   -0.0438020000
Se      8.2720800000    8.6095900000    5.8391800000      0.1316020000    0.1476590000    0.0458900000
Se      8.2721300000    8.6096000000    9.1744700000      0.1322910000    0.1475890000   -0.0465410000
Se      4.9522600000   14.3600100000    9.1744600000      0.0210830000   -0.0523700000    0.0020140000
Se      4.9522100000   14.3599800000    5.8392300000      0.0213950000   -0.0529990000   -0.0020660000
