CRYSTAL
PRIMVEC
   9.9600000000000009   5.7504086809999997   0.0000000000000000
  -4.9800000000000004   8.6256130219999996   0.0000000000000000
   0.0000000000000000   0.0000000000000000  15.0000000000000000
PRIMCOORD
 36   1
Mo      4.9584400000   12.4467500000    7.5068200000      0.2965020000    0.1202750000   -0.0001170000
Mo      3.2983400000    9.5715300000    7.5068200000      0.0304140000    0.0818400000    0.0003600000
Mo      8.2784200000    6.6963700000    7.5068200000     -0.3203860000   -0.2231210000   -0.0001180000
Mo      6.6184700000    9.5715800000    7.5068200000      0.0214730000    0.1042100000    0.0002320000
Mo     -1.6816600000    6.6963300000    7.5068200000     -0.0313460000   -0.0821150000   -0.0002080000
Mo     -0.0216400000    3.8210900000    7.5068200000      0.0892040000   -0.0850290000    0.0000450000
Mo      1.6383900000    0.9459200000    7.5068200000     -0.0580760000    0.1656860000    0.0001340000
Mo      4.9583600000    6.6962900000    7.5068200000     -0.0884680000    0.0850200000   -0.0001770000
Mo      6.6183900000    3.8211300000    7.5068200000      0.0581720000   -0.1659420000   -0.0002600000
Mo      3.2984200000    3.8211700000    7.5068200000      0.3203880000    0.2234360000    0.0001170000
Mo      1.6384700000    6.6963800000    7.5068200000     -0.0219550000   -0.1039860000    0.0000780000
Mo     -0.0215600000    9.5715500000    7.5068200000     -0.2970360000   -0.1204730000    0.0001140000
Se      4.9525100000    8.6097400000    9.1744200000     -0.0016030000   -0.0623690000   -0.0005750000
Se      3.2923300000   11.4849300000    5.8392200000     -0.1225520000   -0.0346570000   -0.0317950000
Se      3.2923800000   11.4849500000    9.1744300000     -0.1224000000   -0.0349750000    0.0316870000
Se      1.6322000000    8.6094900000    9.1744700000      0.0559060000    0.0014050000    0.1264750000
Se      1.6321600000    8.6094500000    5.8391800000      0.0555350000    0.0011470000   -0.1259200000
Se      6.6124500000    5.7344300000    9.1744300000      0.1243200000    0.0974880000   -0.0318540000
Se      6.6124100000    5.7343900000    5.8392200000      0.1241440000    0.0973970000    0.0320410000
Se      4.9524600000    8.6097100000    5.8392700000     -0.0014510000   -0.0626860000    0.0004990000
Se     -1.6876700000    8.6097300000    5.8392200000      0.1228020000    0.0349890000    0.0319850000
Se     -1.6876200000    8.6097400000    9.1744300000      0.1226910000    0.0352230000   -0.0318890000
Se      4.9522100000    2.8591600000    5.8392300000     -0.0446980000    0.0740820000    0.0262070000
Se      4.9522600000    2.8591900000    9.1744600000     -0.0449560000    0.0738740000   -0.0265530000
Se      3.2921300000    5.7343900000    9.1744700000     -0.0120360000   -0.0742470000   -0.1001370000
Se      3.2920800000    5.7343800000    5.8391800000     -0.0115740000   -0.0743230000    0.0996340000
Se     -0.0275400000    5.7345100000    5.8392700000      0.0015230000    0.0624880000   -0.0007760000
Se     -0.0274900000    5.7345400000    9.1744200000      0.0018460000    0.0623470000    0.0007250000
Se      6.6122000000   11.4846900000    9.1744700000     -0.0555140000   -0.0013690000   -0.1268160000
Se      1.6324100000    2.8591900000    5.8392200000     -0.1242150000   -0.0972380000   -0.0317760000
Se      1.6324500000    2.8592200000    9.1744300000     -0.1244310000   -0.0973090000    0.0317670000
Se      6.6121600000   11.4846600000    5.8391800000     -0.0554320000   -0.0009880000    0.1260060000
Se      8.2720800000    8.6095900000    5.8391800000      0.0116430000    0.0740210000   -0.0999290000
Se      8.2721300000    8.6096000000    9.1744700000      0.0120840000    0.0739780000    0.1003440000
Se      4.9522600000   14.3600100000    9.1744600000      0.0447910000   -0.0739400000    0.0266240000
Se      4.9522100000   14.3599800000    5.8392300000      0.0447970000   -0.0741280000   -0.0261960000
