CRYSTAL
PRIMVEC
   9.9600000000000009   5.7504086809999997   0.0000000000000000
  -4.9800000000000004   8.6256130219999996   0.0000000000000000
   0.0000000000000000   0.0000000000000000  15.0000000000000000
PRIMCOORD
 36   1
Mo      4.9584400000   12.4467500000    7.5068200000      0.1686960000    0.1347540000    0.0005460000
Mo      3.2983400000    9.5715300000    7.5068200000      0.0411400000    0.0923980000   -0.0018920000
Mo      8.2784200000    6.6963700000    7.5068200000     -0.2165990000   -0.1095680000    0.0003100000
Mo      6.6184700000    9.5715800000    7.5068200000      0.0464960000   -0.0234550000   -0.0005390000
Mo     -1.6816600000    6.6963300000    7.5068200000     -0.0407470000   -0.0920110000    0.0017420000
Mo     -0.0216400000    3.8210900000    7.5068200000      0.0975270000   -0.0467940000   -0.0014810000
Mo      1.6383900000    0.9459200000    7.5068200000     -0.0612630000    0.1456340000   -0.0005340000
Mo      4.9583600000    6.6962900000    7.5068200000     -0.0979680000    0.0466760000    0.0014000000
Mo      6.6183900000    3.8211300000    7.5068200000      0.0611250000   -0.1453330000    0.0007520000
Mo      3.2984200000    3.8211700000    7.5068200000      0.2164580000    0.1091540000   -0.0000960000
Mo      1.6384700000    6.6963800000    7.5068200000     -0.0464730000    0.0230010000    0.0003880000
Mo     -0.0215600000    9.5715500000    7.5068200000     -0.1683730000   -0.1344600000   -0.0005620000
Se      4.9525100000    8.6097400000    9.1744200000      0.0038270000    0.0605370000    0.0012210000
Se      3.2923300000   11.4849300000    5.8392200000      0.2024920000    0.0866570000   -0.0019420000
Se      3.2923800000   11.4849500000    9.1744300000      0.2024560000    0.0845830000    0.0009540000
Se      1.6322000000    8.6094900000    9.1744700000     -0.0471590000    0.0560970000   -0.0278090000
Se      1.6321600000    8.6094500000    5.8391800000     -0.0480240000    0.0548770000    0.0256660000
Se      6.6124500000    5.7344300000    9.1744300000     -0.2032890000   -0.1500000000   -0.0015650000
Se      6.6124100000    5.7343900000    5.8392200000     -0.2043850000   -0.1501720000    0.0043130000
Se      4.9524600000    8.6097100000    5.8392700000      0.0050470000    0.0583390000   -0.0023820000
Se     -1.6876700000    8.6097300000    5.8392200000     -0.2024000000   -0.0858740000    0.0020400000
Se     -1.6876200000    8.6097400000    9.1744300000     -0.2021370000   -0.0840800000   -0.0010030000
Se      4.9522100000    2.8591600000    5.8392300000      0.0890390000   -0.1684300000   -0.0034690000
Se      4.9522600000    2.8591900000    9.1744600000      0.0883950000   -0.1692430000    0.0034390000
Se      3.2921300000    5.7343900000    9.1744700000     -0.0390050000    0.1099790000    0.0239810000
Se      3.2920800000    5.7343800000    5.8391800000     -0.0384130000    0.1107630000   -0.0221430000
Se     -0.0275400000    5.7345100000    5.8392700000     -0.0050640000   -0.0585370000    0.0019190000
Se     -0.0274900000    5.7345400000    9.1744200000     -0.0039130000   -0.0606630000   -0.0011170000
Se      6.6122000000   11.4846900000    9.1744700000      0.0475890000   -0.0561700000    0.0276250000
Se      1.6324100000    2.8591900000    5.8392200000      0.2040700000    0.1501680000   -0.0040610000
Se      1.6324500000    2.8592200000    9.1744300000      0.2027590000    0.1501780000    0.0016240000
Se      6.6121600000   11.4846600000    5.8391800000      0.0483260000   -0.0548470000   -0.0257450000
Se      8.2720800000    8.6095900000    5.8391800000      0.0383480000   -0.1115250000    0.0220590000
Se      8.2721300000    8.6096000000    9.1744700000      0.0388220000   -0.1103960000   -0.0240180000
Se      4.9522600000   14.3600100000    9.1744600000     -0.0882520000    0.1691730000   -0.0033220000
Se      4.9522100000   14.3599800000    5.8392300000     -0.0889360000    0.1685880000    0.0036870000
