CRYSTAL
PRIMVEC
   9.9600000000000009   5.7504086809999997   0.0000000000000000
  -4.9800000000000004   8.6256130219999996   0.0000000000000000
   0.0000000000000000   0.0000000000000000  15.0000000000000000
PRIMCOORD
 36   1
Mo      4.9584400000   12.4467500000    7.5068200000      0.2152630000   -0.1268250000   -0.0009740000
Mo      3.2983400000    9.5715300000    7.5068200000     -0.0348740000    0.2741510000   -0.0006510000
Mo      8.2784200000    6.6963700000    7.5068200000      0.0192270000    0.2481020000   -0.0005670000
Mo      6.6184700000    9.5715800000    7.5068200000     -0.2307640000   -0.1234730000    0.0020790000
Mo     -1.6816600000    6.6963300000    7.5068200000     -0.0351360000    0.2693470000   -0.0010810000
Mo     -0.0216400000    3.8210900000    7.5068200000      0.2112920000   -0.1805670000   -0.0006270000
Mo      1.6383900000    0.9459200000    7.5068200000     -0.1788240000   -0.0926150000    0.0015870000
Mo      4.9583600000    6.6962900000    7.5068200000      0.2142270000   -0.1885100000   -0.0009740000
Mo      6.6183900000    3.8211300000    7.5068200000     -0.1831090000   -0.0896010000    0.0018160000
Mo      3.2984200000    3.8211700000    7.5068200000      0.0177280000    0.2526540000   -0.0004690000
Mo      1.6384700000    6.6963800000    7.5068200000     -0.2333500000   -0.1263450000    0.0017080000
Mo     -0.0215600000    9.5715500000    7.5068200000      0.2152590000   -0.1263560000   -0.0010130000
Se      4.9525100000    8.6097400000    9.1744200000      0.0953600000    0.0608450000    0.0249310000
Se      3.2923300000   11.4849300000    5.8392200000     -0.0013310000   -0.1006490000    0.0099250000
Se      3.2923800000   11.4849500000    9.1744300000     -0.0022260000   -0.1001690000   -0.0099140000
Se      1.6322000000    8.6094900000    9.1744700000     -0.0737450000    0.0443870000   -0.0044450000
Se      1.6321600000    8.6094500000    5.8391800000     -0.0738720000    0.0454130000    0.0044350000
Se      6.6124500000    5.7344300000    9.1744300000     -0.0923560000    0.0409400000   -0.0132810000
Se      6.6124100000    5.7343900000    5.8392200000     -0.0924920000    0.0419990000    0.0130360000
Se      4.9524600000    8.6097100000    5.8392700000      0.0943700000    0.0601690000   -0.0249990000
Se     -1.6876700000    8.6097300000    5.8392200000     -0.0026210000   -0.0987180000    0.0101810000
Se     -1.6876200000    8.6097400000    9.1744300000     -0.0034990000   -0.0981270000   -0.0098870000
Se      4.9522100000    2.8591600000    5.8392300000      0.0669470000    0.0418420000   -0.0090930000
Se      4.9522600000    2.8591900000    9.1744600000      0.0676950000    0.0424790000    0.0089330000
Se      3.2921300000    5.7343900000    9.1744700000      0.0073570000   -0.0861090000   -0.0061290000
Se      3.2920800000    5.7343800000    5.8391800000      0.0082550000   -0.0864780000    0.0060800000
Se     -0.0275400000    5.7345100000    5.8392700000      0.0952230000    0.0594360000   -0.0211710000
Se     -0.0274900000    5.7345400000    9.1744200000      0.0962050000    0.0597930000    0.0213210000
Se      6.6122000000   11.4846900000    9.1744700000     -0.0735810000    0.0443480000   -0.0060160000
Se      1.6324100000    2.8591900000    5.8392200000     -0.0916720000    0.0407900000    0.0103110000
Se      1.6324500000    2.8592200000    9.1744300000     -0.0915890000    0.0399420000   -0.0105700000
Se      6.6121600000   11.4846600000    5.8391800000     -0.0735710000    0.0456000000    0.0059900000
Se      8.2720800000    8.6095900000    5.8391800000      0.0077930000   -0.0864940000    0.0046460000
Se      8.2721300000    8.6096000000    9.1744700000      0.0069050000   -0.0859120000   -0.0049890000
Se      4.9522600000   14.3600100000    9.1744600000      0.0660750000    0.0434420000    0.0087370000
Se      4.9522100000   14.3599800000    5.8392300000      0.0653540000    0.0428860000   -0.0087640000
