CRYSTAL
PRIMVEC
   9.9600000000000009   5.7504086809999997   0.0000000000000000
  -4.9800000000000004   8.6256130219999996   0.0000000000000000
   0.0000000000000000   0.0000000000000000  15.0000000000000000
PRIMCOORD
 36   1
Mo      4.9584400000   12.4467500000    7.5068200000     -0.0074000000    0.0022010000    0.0000050000
Mo      3.2983400000    9.5715300000    7.5068200000     -0.0001190000   -0.0080560000   -0.0001310000
Mo      8.2784200000    6.6963700000    7.5068200000     -0.0023180000   -0.0077980000   -0.0002110000
Mo      6.6184700000    9.5715800000    7.5068200000      0.0088230000    0.0052490000    0.0001020000
Mo     -1.6816600000    6.6963300000    7.5068200000     -0.0002360000   -0.0080290000   -0.0000730000
Mo     -0.0216400000    3.8210900000    7.5068200000     -0.0068880000    0.0040270000   -0.0001190000
Mo      1.6383900000    0.9459200000    7.5068200000      0.0062610000    0.0037020000   -0.0001060000
Mo      4.9583600000    6.6962900000    7.5068200000     -0.0065910000    0.0042090000    0.0001680000
Mo      6.6183900000    3.8211300000    7.5068200000      0.0065260000    0.0036780000    0.0000030000
Mo      3.2984200000    3.8211700000    7.5068200000     -0.0020170000   -0.0078650000   -0.0000580000
Mo      1.6384700000    6.6963800000    7.5068200000      0.0090300000    0.0052410000   -0.0000060000
Mo     -0.0215600000    9.5715500000    7.5068200000     -0.0072050000    0.0023370000    0.0000760000
Se      4.9525100000    8.6097400000    9.1744200000      0.1880410000    0.0980260000   -0.0025780000
Se      3.2923300000   11.4849300000    5.8392200000     -0.1714650000    0.1014910000   -0.0026300000
Se      3.2923800000   11.4849500000    9.1744300000     -0.1720290000    0.1015580000    0.0060270000
Se      1.6322000000    8.6094900000    9.1744700000     -0.0141670000   -0.1987820000    0.0015760000
Se      1.6321600000    8.6094500000    5.8391800000     -0.0187430000   -0.1995970000   -0.0113900000
Se      6.6124500000    5.7344300000    9.1744300000     -0.0178130000   -0.2002140000   -0.0016780000
Se      6.6124100000    5.7343900000    5.8392200000     -0.0172690000   -0.1990780000   -0.0118040000
Se      4.9524600000    8.6097100000    5.8392700000      0.1905070000    0.0981060000    0.0151560000
Se     -1.6876700000    8.6097300000    5.8392200000     -0.1704420000    0.0996070000   -0.0064220000
Se     -1.6876200000    8.6097400000    9.1744300000     -0.1747670000    0.1015430000    0.0016500000
Se      4.9522100000    2.8591600000    5.8392300000      0.1881010000    0.0985270000    0.0152840000
Se      4.9522600000    2.8591900000    9.1744600000      0.1866550000    0.0985540000   -0.0057480000
Se      3.2921300000    5.7343900000    9.1744700000     -0.1725160000    0.1004910000    0.0037320000
Se      3.2920800000    5.7343800000    5.8391800000     -0.1705160000    0.1002880000   -0.0039820000
Se     -0.0275400000    5.7345100000    5.8392700000      0.1883290000    0.1003950000    0.0149180000
Se     -0.0274900000    5.7345400000    9.1744200000      0.1906120000    0.0961350000   -0.0049910000
Se      6.6122000000   11.4846900000    9.1744700000     -0.0171180000   -0.1979490000    0.0007850000
Se      1.6324100000    2.8591900000    5.8392200000     -0.0180130000   -0.1998720000   -0.0073930000
Se      1.6324500000    2.8592200000    9.1744300000     -0.0152580000   -0.1974980000    0.0030280000
Se      6.6121600000   11.4846600000    5.8391800000     -0.0165960000   -0.1983010000   -0.0106090000
Se      8.2720800000    8.6095900000    5.8391800000     -0.1701660000    0.0997080000   -0.0059700000
Se      8.2721300000    8.6096000000    9.1744700000     -0.1717890000    0.1031160000    0.0031540000
Se      4.9522600000   14.3600100000    9.1744600000      0.1891220000    0.0951160000   -0.0057180000
Se      4.9522100000   14.3599800000    5.8392300000      0.1871460000    0.0987250000    0.0156250000
