CRYSTAL
PRIMVEC
   9.9600000000000009   5.7504086809999997   0.0000000000000000
  -4.9800000000000004   8.6256130219999996   0.0000000000000000
   0.0000000000000000   0.0000000000000000  15.0000000000000000
PRIMCOORD
 36   1
Mo      4.9584400000   12.4467500000    7.5068200000     -0.0002270000    0.0009340000   -0.0185180000
Mo      3.2983400000    9.5715300000    7.5068200000      0.0001900000   -0.0004740000   -0.1865890000
Mo      8.2784200000    6.6963700000    7.5068200000     -0.0005570000   -0.0003230000    0.0234890000
Mo      6.6184700000    9.5715800000    7.5068200000      0.0002470000   -0.0003960000   -0.0047580000
Mo     -1.6816600000    6.6963300000    7.5068200000     -0.0000930000    0.0008460000    0.1864880000
Mo     -0.0216400000    3.8210900000    7.5068200000      0.0007550000    0.0000330000   -0.4772930000
Mo      1.6383900000    0.9459200000    7.5068200000     -0.0004350000   -0.0006830000    0.2897980000
Mo      4.9583600000    6.6962900000    7.5068200000      0.0002980000    0.0000730000    0.4771890000
Mo      6.6183900000    3.8211300000    7.5068200000      0.0004310000    0.0005670000   -0.2898800000
Mo      3.2984200000    3.8211700000    7.5068200000     -0.0004090000    0.0004460000   -0.0234070000
Mo      1.6384700000    6.6963800000    7.5068200000     -0.0004180000   -0.0001060000    0.0048610000
Mo     -0.0215600000    9.5715500000    7.5068200000     -0.0000520000   -0.0008410000    0.0185810000
Se      4.9525100000    8.6097400000    9.1744200000      0.0394990000   -0.1077250000   -0.0614760000
Se      3.2923300000   11.4849300000    5.8392200000     -0.0322560000    0.0011460000    0.1062110000
Se      3.2923800000   11.4849500000    9.1744300000      0.0320800000   -0.0013980000    0.1069840000
Se      1.6322000000    8.6094900000    9.1744700000     -0.0281300000   -0.0231350000    0.0358150000
Se      1.6321600000    8.6094500000    5.8391800000      0.0280610000    0.0236120000    0.0360050000
Se      6.6124500000    5.7344300000    9.1744300000     -0.0713160000    0.1089180000   -0.0460890000
Se      6.6124100000    5.7343900000    5.8392200000      0.0715530000   -0.1090240000   -0.0450080000
Se      4.9524600000    8.6097100000    5.8392700000     -0.0398710000    0.1080210000   -0.0613980000
Se     -1.6876700000    8.6097300000    5.8392200000      0.0322480000   -0.0012520000   -0.1060250000
Se     -1.6876200000    8.6097400000    9.1744300000     -0.0320740000    0.0013290000   -0.1071310000
Se      4.9522100000    2.8591600000    5.8392300000      0.0464480000    0.0264780000    0.0641070000
Se      4.9522600000    2.8591900000    9.1744600000     -0.0462360000   -0.0265390000    0.0651460000
Se      3.2921300000    5.7343900000    9.1744700000      0.0744740000    0.0494580000   -0.1008200000
Se      3.2920800000    5.7343800000    5.8391800000     -0.0745270000   -0.0496590000   -0.1007820000
Se     -0.0275400000    5.7345100000    5.8392700000      0.0398470000   -0.1080650000    0.0615070000
Se     -0.0274900000    5.7345400000    9.1744200000     -0.0394450000    0.1077230000    0.0614220000
Se      6.6122000000   11.4846900000    9.1744700000      0.0281060000    0.0231890000   -0.0355160000
Se      1.6324100000    2.8591900000    5.8392200000     -0.0715970000    0.1091890000    0.0454040000
Se      1.6324500000    2.8592200000    9.1744300000      0.0712850000   -0.1087200000    0.0457120000
Se      6.6121600000   11.4846600000    5.8391800000     -0.0280240000   -0.0235080000   -0.0363260000
Se      8.2720800000    8.6095900000    5.8391800000      0.0744660000    0.0495710000    0.1005880000
Se      8.2721300000    8.6096000000    9.1744700000     -0.0746680000   -0.0495800000    0.1009980000
Se      4.9522600000   14.3600100000    9.1744600000      0.0464780000    0.0264400000   -0.0650160000
Se      4.9522100000   14.3599800000    5.8392300000     -0.0460840000   -0.0265540000   -0.0642700000
