CRYSTAL
PRIMVEC
   9.9600000000000009   5.7504086809999997   0.0000000000000000
  -4.9800000000000004   8.6256130219999996   0.0000000000000000
   0.0000000000000000   0.0000000000000000  15.0000000000000000
PRIMCOORD
 36   1
Mo      4.9584400000   12.4467500000    7.5068200000      0.1353120000    0.0790610000   -0.0001870000
Mo      3.2983400000    9.5715300000    7.5068200000     -0.1674920000   -0.0974160000   -0.0005370000
Mo      8.2784200000    6.6963700000    7.5068200000      0.1360790000    0.0786460000   -0.0004770000
Mo      6.6184700000    9.5715800000    7.5068200000      0.1385820000    0.0803270000    0.0002630000
Mo     -1.6816600000    6.6963300000    7.5068200000      0.1670740000    0.0971570000   -0.0000360000
Mo     -0.0216400000    3.8210900000    7.5068200000      0.1669480000    0.0966210000    0.0002250000
Mo      1.6383900000    0.9459200000    7.5068200000      0.1709620000    0.0987090000    0.0021990000
Mo      4.9583600000    6.6962900000    7.5068200000     -0.1672030000   -0.0967250000   -0.0005890000
Mo      6.6183900000    3.8211300000    7.5068200000     -0.1698070000   -0.0987200000   -0.0013700000
Mo      3.2984200000    3.8211700000    7.5068200000     -0.1363840000   -0.0774160000   -0.0001670000
Mo      1.6384700000    6.6963800000    7.5068200000     -0.1381850000   -0.0802790000    0.0005630000
Mo     -0.0215600000    9.5715500000    7.5068200000     -0.1356170000   -0.0799580000    0.0001480000
Se      4.9525100000    8.6097400000    9.1744200000     -0.0206580000   -0.0123960000   -0.1045930000
Se      3.2923300000   11.4849300000    5.8392200000     -0.0242980000   -0.0138410000    0.1032600000
Se      3.2923800000   11.4849500000    9.1744300000     -0.0245120000   -0.0140190000   -0.1046580000
Se      1.6322000000    8.6094900000    9.1744700000     -0.1724270000   -0.1005780000    0.0150480000
Se      1.6321600000    8.6094500000    5.8391800000     -0.1729310000   -0.1015520000   -0.0150600000
Se      6.6124500000    5.7344300000    9.1744300000     -0.0235360000   -0.0153740000   -0.1048810000
Se      6.6124100000    5.7343900000    5.8392200000     -0.0232740000   -0.0146560000    0.1032060000
Se      4.9524600000    8.6097100000    5.8392700000     -0.0202130000   -0.0120190000    0.1047480000
Se     -1.6876700000    8.6097300000    5.8392200000      0.0241800000    0.0135920000   -0.1036270000
Se     -1.6876200000    8.6097400000    9.1744300000      0.0249190000    0.0126990000    0.1049320000
Se      4.9522100000    2.8591600000    5.8392300000     -0.1748490000   -0.1015420000   -0.0159300000
Se      4.9522600000    2.8591900000    9.1744600000     -0.1738140000   -0.1003980000    0.0144520000
Se      3.2921300000    5.7343900000    9.1744700000     -0.1721640000   -0.0991870000    0.0148770000
Se      3.2920800000    5.7343800000    5.8391800000     -0.1734890000   -0.0991460000   -0.0153240000
Se     -0.0275400000    5.7345100000    5.8392700000      0.0210290000    0.0122980000   -0.1046010000
Se     -0.0274900000    5.7345400000    9.1744200000      0.0199570000    0.0122340000    0.1045090000
Se      6.6122000000   11.4846900000    9.1744700000      0.1721530000    0.1007770000   -0.0147930000
Se      1.6324100000    2.8591900000    5.8392200000      0.0233940000    0.0142190000   -0.1032250000
Se      1.6324500000    2.8592200000    9.1744300000      0.0234340000    0.0162700000    0.1047570000
Se      6.6121600000   11.4846600000    5.8391800000      0.1728660000    0.1006410000    0.0150380000
Se      8.2720800000    8.6095900000    5.8391800000      0.1730720000    0.1003100000    0.0146670000
Se      8.2721300000    8.6096000000    9.1744700000      0.1728310000    0.0993280000   -0.0143110000
Se      4.9522600000   14.3600100000    9.1744600000      0.1729250000    0.1005650000   -0.0153360000
Se      4.9522100000   14.3599800000    5.8392300000      0.1758380000    0.1017560000    0.0168160000
