CRYSTAL
PRIMVEC
   9.9600000000000009   5.7504086809999997   0.0000000000000000
  -4.9800000000000004   8.6256130219999996   0.0000000000000000
   0.0000000000000000   0.0000000000000000  15.0000000000000000
PRIMCOORD
 36   1
Mo      4.9584400000   12.4467500000    7.5068200000     -0.0362650000    0.0467510000    0.0004710000
Mo      3.2983400000    9.5715300000    7.5068200000     -0.0256880000    0.0576220000   -0.0002520000
Mo      8.2784200000    6.6963700000    7.5068200000      0.0255140000   -0.0577320000    0.0003250000
Mo      6.6184700000    9.5715800000    7.5068200000      0.0133200000    0.0129230000   -0.0007680000
Mo     -1.6816600000    6.6963300000    7.5068200000     -0.0259570000    0.0575070000   -0.0002960000
Mo     -0.0216400000    3.8210900000    7.5068200000      0.0360500000   -0.0467790000   -0.0003880000
Mo      1.6383900000    0.9459200000    7.5068200000     -0.0136410000   -0.0130480000    0.0007070000
Mo      4.9583600000    6.6962900000    7.5068200000      0.0363860000   -0.0468090000   -0.0003330000
Mo      6.6183900000    3.8211300000    7.5068200000     -0.0131110000   -0.0126520000    0.0005340000
Mo      3.2984200000    3.8211700000    7.5068200000      0.0258420000   -0.0576090000    0.0004500000
Mo      1.6384700000    6.6963800000    7.5068200000      0.0130780000    0.0126440000   -0.0007710000
Mo     -0.0215600000    9.5715500000    7.5068200000     -0.0366640000    0.0466840000    0.0002840000
Se      4.9525100000    8.6097400000    9.1744200000     -0.0031000000   -0.0143560000   -0.2125300000
Se      3.2923300000   11.4849300000    5.8392200000      0.0658120000   -0.1438350000   -0.1161560000
Se      3.2923800000   11.4849500000    9.1744300000      0.0645490000   -0.1431900000    0.1193580000
Se      1.6322000000    8.6094900000    9.1744700000      0.0952140000   -0.1375010000   -0.0959080000
Se      1.6321600000    8.6094500000    5.8391800000      0.0970410000   -0.1395070000    0.0947690000
Se      6.6124500000    5.7344300000    9.1744300000     -0.0964800000    0.1372710000    0.0967160000
Se      6.6124100000    5.7343900000    5.8392200000     -0.0972450000    0.1387260000   -0.0948820000
Se      4.9524600000    8.6097100000    5.8392700000     -0.0008320000   -0.0137280000    0.2110320000
Se     -1.6876700000    8.6097300000    5.8392200000      0.0648180000   -0.1426020000   -0.1148840000
Se     -1.6876200000    8.6097400000    9.1744300000      0.0653090000   -0.1422130000    0.1190540000
Se      4.9522100000    2.8591600000    5.8392300000      0.0003050000    0.0144610000   -0.2103170000
Se      4.9522600000    2.8591900000    9.1744600000      0.0035520000    0.0148340000    0.2115800000
Se      3.2921300000    5.7343900000    9.1744700000     -0.0660680000    0.1420690000   -0.1197850000
Se      3.2920800000    5.7343800000    5.8391800000     -0.0651940000    0.1432940000    0.1158060000
Se     -0.0275400000    5.7345100000    5.8392700000     -0.0007390000   -0.0141650000    0.2118680000
Se     -0.0274900000    5.7345400000    9.1744200000     -0.0031400000   -0.0144550000   -0.2120280000
Se      6.6122000000   11.4846900000    9.1744700000      0.0965230000   -0.1381610000   -0.0956160000
Se      1.6324100000    2.8591900000    5.8392200000     -0.0953490000    0.1388080000   -0.0941200000
Se      1.6324500000    2.8592200000    9.1744300000     -0.0951920000    0.1373390000    0.0952120000
Se      6.6121600000   11.4846600000    5.8391800000      0.0962320000   -0.1402460000    0.0942350000
Se      8.2720800000    8.6095900000    5.8391800000     -0.0663110000    0.1443220000    0.1152870000
Se      8.2721300000    8.6096000000    9.1744700000     -0.0656920000    0.1433550000   -0.1186760000
Se      4.9522600000   14.3600100000    9.1744600000      0.0051080000    0.0150790000    0.2123730000
Se      4.9522100000   14.3599800000    5.8392300000      0.0017660000    0.0146130000   -0.2123640000
