CRYSTAL
PRIMVEC
   9.9600000000000009   5.7504086809999997   0.0000000000000000
  -4.9800000000000004   8.6256130219999996   0.0000000000000000
   0.0000000000000000   0.0000000000000000  15.0000000000000000
PRIMCOORD
 36   1
Mo      4.9584400000   12.4467500000    7.5068200000     -0.0000540000   -0.0002510000    0.0154380000
Mo      3.2983400000    9.5715300000    7.5068200000      0.0002570000   -0.0001670000   -0.0153850000
Mo      8.2784200000    6.6963700000    7.5068200000     -0.0001670000    0.0002080000    0.0153680000
Mo      6.6184700000    9.5715800000    7.5068200000     -0.0001730000    0.0000550000    0.0141380000
Mo     -1.6816600000    6.6963300000    7.5068200000      0.0002420000   -0.0002700000   -0.0151720000
Mo     -0.0216400000    3.8210900000    7.5068200000      0.0000760000    0.0002620000   -0.0153750000
Mo      1.6383900000    0.9459200000    7.5068200000      0.0001440000    0.0000270000   -0.0140300000
Mo      4.9583600000    6.6962900000    7.5068200000     -0.0000790000    0.0002070000   -0.0155020000
Mo      6.6183900000    3.8211300000    7.5068200000      0.0001440000   -0.0000270000   -0.0142380000
Mo      3.2984200000    3.8211700000    7.5068200000     -0.0001720000    0.0003210000    0.0153280000
Mo      1.6384700000    6.6963800000    7.5068200000     -0.0000810000   -0.0000100000    0.0142750000
Mo     -0.0215600000    9.5715500000    7.5068200000      0.0000110000   -0.0002500000    0.0154340000
Se      4.9525100000    8.6097400000    9.1744200000     -0.1013400000   -0.0572290000    0.1621780000
Se      3.2923300000   11.4849300000    5.8392200000      0.1051220000    0.0521400000    0.1713430000
Se      3.2923800000   11.4849500000    9.1744300000     -0.1022900000   -0.0512430000    0.1713510000
Se      1.6322000000    8.6094900000    9.1744700000      0.0922240000    0.0628450000   -0.1721670000
Se      1.6321600000    8.6094500000    5.8391800000     -0.0944460000   -0.0638670000   -0.1729500000
Se      6.6124500000    5.7344300000    9.1744300000     -0.0951510000   -0.0642410000    0.1685850000
Se      6.6124100000    5.7343900000    5.8392200000      0.1011230000    0.0673170000    0.1698760000
Se      4.9524600000    8.6097100000    5.8392700000      0.1035300000    0.0595680000    0.1612860000
Se     -1.6876700000    8.6097300000    5.8392200000      0.1065640000    0.0523620000    0.1723120000
Se     -1.6876200000    8.6097400000    9.1744300000     -0.1042430000   -0.0504960000    0.1709110000
Se      4.9522100000    2.8591600000    5.8392300000     -0.1014920000   -0.0588070000   -0.1595830000
Se      4.9522600000    2.8591900000    9.1744600000      0.0957370000    0.0573270000   -0.1605400000
Se      3.2921300000    5.7343900000    9.1744700000      0.1008020000    0.0466730000   -0.1703670000
Se      3.2920800000    5.7343800000    5.8391800000     -0.1040660000   -0.0506070000   -0.1713420000
Se     -0.0275400000    5.7345100000    5.8392700000      0.1059380000    0.0614920000    0.1584670000
Se     -0.0274900000    5.7345400000    9.1744200000     -0.1030470000   -0.0576770000    0.1605720000
Se      6.6122000000   11.4846900000    9.1744700000      0.0931230000    0.0629390000   -0.1681110000
Se      1.6324100000    2.8591900000    5.8392200000      0.0991230000    0.0657320000    0.1734710000
Se      1.6324500000    2.8592200000    9.1744300000     -0.0931560000   -0.0650320000    0.1719160000
Se      6.6121600000   11.4846600000    5.8391800000     -0.0956700000   -0.0632140000   -0.1698790000
Se      8.2720800000    8.6095900000    5.8391800000     -0.1028290000   -0.0544460000   -0.1725690000
Se      8.2721300000    8.6096000000    9.1744700000      0.0992040000    0.0483590000   -0.1718160000
Se      4.9522600000   14.3600100000    9.1744600000      0.0983110000    0.0564870000   -0.1625790000
Se      4.9522100000   14.3599800000    5.8392300000     -0.1031460000   -0.0564060000   -0.1606910000
