CRYSTAL
PRIMVEC
   9.9600000000000009   5.7504086809999997   0.0000000000000000
  -4.9800000000000004   8.6256130219999996   0.0000000000000000
   0.0000000000000000   0.0000000000000000  15.0000000000000000
PRIMCOORD
 36   1
Mo      4.9584400000   12.4467500000    7.5068200000      0.0002940000   -0.0008720000   -0.1141030000
Mo      3.2983400000    9.5715300000    7.5068200000     -0.0001780000    0.0003500000   -0.0326540000
Mo      8.2784200000    6.6963700000    7.5068200000     -0.0000950000    0.0013690000   -0.3476480000
Mo      6.6184700000    9.5715800000    7.5068200000     -0.0002910000   -0.0000150000    0.4604250000
Mo     -1.6816600000    6.6963300000    7.5068200000      0.0009780000   -0.0003360000    0.0325200000
Mo     -0.0216400000    3.8210900000    7.5068200000     -0.0002740000   -0.0007360000   -0.0151270000
Mo      1.6383900000    0.9459200000    7.5068200000      0.0001550000    0.0010870000   -0.0174250000
Mo      4.9583600000    6.6962900000    7.5068200000      0.0004460000    0.0006810000    0.0151460000
Mo      6.6183900000    3.8211300000    7.5068200000     -0.0000930000   -0.0006390000    0.0174400000
Mo      3.2984200000    3.8211700000    7.5068200000     -0.0000720000   -0.0015930000    0.3475870000
Mo      1.6384700000    6.6963800000    7.5068200000     -0.0000430000    0.0001270000   -0.4603310000
Mo     -0.0215600000    9.5715500000    7.5068200000     -0.0012520000    0.0007180000    0.1141080000
Se      4.9525100000    8.6097400000    9.1744200000      0.0781560000    0.0384710000   -0.0974210000
Se      3.2923300000   11.4849300000    5.8392200000      0.0173280000    0.0104550000    0.0285030000
Se      3.2923800000   11.4849500000    9.1744300000     -0.0173770000   -0.0103270000    0.0282190000
Se      1.6322000000    8.6094900000    9.1744700000     -0.0341370000    0.0922590000    0.0819280000
Se      1.6321600000    8.6094500000    5.8391800000      0.0347870000   -0.0926800000    0.0811380000
Se      6.6124500000    5.7344300000    9.1744300000     -0.0607120000   -0.0284410000    0.0697220000
Se      6.6124100000    5.7343900000    5.8392200000      0.0605420000    0.0282550000    0.0689800000
Se      4.9524600000    8.6097100000    5.8392700000     -0.0780430000   -0.0387910000   -0.0970560000
Se     -1.6876700000    8.6097300000    5.8392200000     -0.0171310000   -0.0104450000   -0.0283040000
Se     -1.6876200000    8.6097400000    9.1744300000      0.0175380000    0.0103870000   -0.0283800000
Se      4.9522100000    2.8591600000    5.8392300000      0.0429610000   -0.0215550000   -0.1023240000
Se      4.9522600000    2.8591900000    9.1744600000     -0.0428310000    0.0217180000   -0.1036390000
Se      3.2921300000    5.7343900000    9.1744700000      0.0776230000   -0.1136530000    0.0218120000
Se      3.2920800000    5.7343800000    5.8391800000     -0.0777870000    0.1141620000    0.0198600000
Se     -0.0275400000    5.7345100000    5.8392700000      0.0778120000    0.0388810000    0.0972870000
Se     -0.0274900000    5.7345400000    9.1744200000     -0.0782190000   -0.0383970000    0.0972090000
Se      6.6122000000   11.4846900000    9.1744700000      0.0341640000   -0.0924440000   -0.0815640000
Se      1.6324100000    2.8591900000    5.8392200000     -0.0605160000   -0.0283260000   -0.0687430000
Se      1.6324500000    2.8592200000    9.1744300000      0.0606750000    0.0283660000   -0.0699550000
Se      6.6121600000   11.4846600000    5.8391800000     -0.0347180000    0.0925580000   -0.0814910000
Se      8.2720800000    8.6095900000    5.8391800000      0.0779550000   -0.1141740000   -0.0200550000
Se      8.2721300000    8.6096000000    9.1744700000     -0.0774820000    0.1136770000   -0.0216270000
Se      4.9522600000   14.3600100000    9.1744600000      0.0429100000   -0.0216940000    0.1037440000
Se      4.9522100000   14.3599800000    5.8392300000     -0.0429580000    0.0215820000    0.1022260000
