CRYSTAL
PRIMVEC
   9.9600000000000009   5.7504086809999997   0.0000000000000000
  -4.9800000000000004   8.6256130219999996   0.0000000000000000
   0.0000000000000000   0.0000000000000000  15.0000000000000000
PRIMCOORD
 36   1
Mo      4.9584400000   12.4467500000    7.5068200000      0.0004690000   -0.0008440000   -0.1928700000
Mo      3.2983400000    9.5715300000    7.5068200000      0.0004210000   -0.0009030000   -0.2022890000
Mo      8.2784200000    6.6963700000    7.5068200000      0.0007920000   -0.0005670000    0.2017760000
Mo      6.6184700000    9.5715800000    7.5068200000      0.0003470000   -0.0006110000   -0.0091470000
Mo     -1.6816600000    6.6963300000    7.5068200000      0.0000930000   -0.0003430000   -0.2022480000
Mo     -0.0216400000    3.8210900000    7.5068200000      0.0000830000    0.0002200000    0.1931920000
Mo      1.6383900000    0.9459200000    7.5068200000     -0.0000920000   -0.0001410000    0.0089990000
Mo      4.9583600000    6.6962900000    7.5068200000      0.0006460000   -0.0002300000    0.1930870000
Mo      6.6183900000    3.8211300000    7.5068200000      0.0000980000   -0.0007220000    0.0090040000
Mo      3.2984200000    3.8211700000    7.5068200000     -0.0008530000    0.0015200000    0.2018980000
Mo      1.6384700000    6.6963800000    7.5068200000     -0.0009810000    0.0014220000   -0.0089000000
Mo     -0.0215600000    9.5715500000    7.5068200000     -0.0009880000    0.0011840000   -0.1925060000
Se      4.9525100000    8.6097400000    9.1744200000     -0.0724960000    0.1301040000   -0.0072370000
Se      3.2923300000   11.4849300000    5.8392200000     -0.0743480000    0.0483330000   -0.1526970000
Se      3.2923800000   11.4849500000    9.1744300000      0.0752030000   -0.0505660000   -0.1522610000
Se      1.6322000000    8.6094900000    9.1744700000      0.0013110000    0.0830140000   -0.1591210000
Se      1.6321600000    8.6094500000    5.8391800000     -0.0031270000   -0.0806400000   -0.1597660000
Se      6.6124500000    5.7344300000    9.1744300000     -0.0008260000   -0.0822710000    0.1591540000
Se      6.6124100000    5.7343900000    5.8392200000      0.0021610000    0.0808320000    0.1599420000
Se      4.9524600000    8.6097100000    5.8392700000      0.0740250000   -0.1315930000   -0.0074080000
Se     -1.6876700000    8.6097300000    5.8392200000     -0.0748380000    0.0493280000   -0.1525940000
Se     -1.6876200000    8.6097400000    9.1744300000      0.0744760000   -0.0497260000   -0.1521110000
Se      4.9522100000    2.8591600000    5.8392300000     -0.0744090000    0.1317740000    0.0072510000
Se      4.9522600000    2.8591900000    9.1744600000      0.0722300000   -0.1293000000    0.0073290000
Se      3.2921300000    5.7343900000    9.1744700000     -0.0759810000    0.0507080000    0.1520710000
Se      3.2920800000    5.7343800000    5.8391800000      0.0746770000   -0.0473080000    0.1528920000
Se     -0.0275400000    5.7345100000    5.8392700000      0.0734720000   -0.1306650000   -0.0072710000
Se     -0.0274900000    5.7345400000    9.1744200000     -0.0734530000    0.1310000000   -0.0070290000
Se      6.6122000000   11.4846900000    9.1744700000      0.0024920000    0.0810590000   -0.1593360000
Se      1.6324100000    2.8591900000    5.8392200000      0.0010320000    0.0818750000    0.1599300000
Se      1.6324500000    2.8592200000    9.1744300000     -0.0014690000   -0.0813530000    0.1592980000
Se      6.6121600000   11.4846600000    5.8391800000     -0.0014610000   -0.0825180000   -0.1599610000
Se      8.2720800000    8.6095900000    5.8391800000      0.0755560000   -0.0493110000    0.1526700000
Se      8.2721300000    8.6096000000    9.1744700000     -0.0749450000    0.0486450000    0.1520360000
Se      4.9522600000   14.3600100000    9.1744600000      0.0736900000   -0.1313780000    0.0071860000
Se      4.9522100000   14.3599800000    5.8392300000     -0.0727530000    0.1299380000    0.0069940000
