CRYSTAL
PRIMVEC
   9.9600000000000009   5.7504086809999997   0.0000000000000000
  -4.9800000000000004   8.6256130219999996   0.0000000000000000
   0.0000000000000000   0.0000000000000000  15.0000000000000000
PRIMCOORD
 36   1
Mo      4.9584400000   12.4467500000    7.5068200000     -0.0348610000    0.0212650000   -0.0001300000
Mo      3.2983400000    9.5715300000    7.5068200000     -0.0280520000   -0.0144420000    0.0000680000
Mo      8.2784200000    6.6963700000    7.5068200000      0.0186760000    0.0197250000   -0.0000220000
Mo      6.6184700000    9.5715800000    7.5068200000      0.0156810000   -0.0424730000    0.0000190000
Mo     -1.6816600000    6.6963300000    7.5068200000      0.0278480000    0.0144090000   -0.0001560000
Mo     -0.0216400000    3.8210900000    7.5068200000     -0.0266610000    0.0090160000   -0.0004470000
Mo      1.6383900000    0.9459200000    7.5068200000     -0.0046130000   -0.0233880000    0.0002990000
Mo      4.9583600000    6.6962900000    7.5068200000      0.0269720000   -0.0089850000    0.0002950000
Mo      6.6183900000    3.8211300000    7.5068200000      0.0045420000    0.0232020000   -0.0003200000
Mo      3.2984200000    3.8211700000    7.5068200000     -0.0188260000   -0.0194140000    0.0000060000
Mo      1.6384700000    6.6963800000    7.5068200000     -0.0158400000    0.0425440000    0.0001430000
Mo     -0.0215600000    9.5715500000    7.5068200000      0.0347690000   -0.0214680000    0.0001970000
Se      4.9525100000    8.6097400000    9.1744200000      0.1073240000   -0.0064550000   -0.0074150000
Se      3.2923300000   11.4849300000    5.8392200000      0.1094170000    0.0944000000   -0.0254330000
Se      3.2923800000   11.4849500000    9.1744300000      0.1096430000    0.0915880000    0.0244900000
Se      1.6322000000    8.6094900000    9.1744700000      0.0098390000   -0.0280680000    0.1750630000
Se      1.6321600000    8.6094500000    5.8391800000      0.0056470000   -0.0281870000   -0.1660300000
Se      6.6124500000    5.7344300000    9.1744300000     -0.2198800000   -0.0877950000   -0.0099770000
Se      6.6124100000    5.7343900000    5.8392200000     -0.2225410000   -0.0904870000    0.0116720000
Se      4.9524600000    8.6097100000    5.8392700000      0.1111100000   -0.0055490000    0.0077950000
Se     -1.6876700000    8.6097300000    5.8392200000     -0.1103060000   -0.0955460000    0.0254130000
Se     -1.6876200000    8.6097400000    9.1744300000     -0.1106290000   -0.0924960000   -0.0240380000
Se      4.9522100000    2.8591600000    5.8392300000     -0.1406160000    0.2075290000    0.0653190000
Se      4.9522600000    2.8591900000    9.1744600000     -0.1416050000    0.2033360000   -0.0732570000
Se      3.2921300000    5.7343900000    9.1744700000      0.1297650000   -0.1762610000   -0.1046070000
Se      3.2920800000    5.7343800000    5.8391800000      0.1322210000   -0.1808270000    0.1031670000
Se     -0.0275400000    5.7345100000    5.8392700000     -0.1129480000    0.0049990000   -0.0082980000
Se     -0.0274900000    5.7345400000    9.1744200000     -0.1092570000    0.0058310000    0.0087850000
Se      6.6122000000   11.4846900000    9.1744700000     -0.0075480000    0.0294480000   -0.1748480000
Se      1.6324100000    2.8591900000    5.8392200000      0.2234200000    0.0909240000   -0.0102910000
Se      1.6324500000    2.8592200000    9.1744300000      0.2200740000    0.0877020000    0.0095460000
Se      6.6121600000   11.4846600000    5.8391800000     -0.0048570000    0.0300920000    0.1649780000
Se      8.2720800000    8.6095900000    5.8391800000     -0.1315480000    0.1791910000   -0.1032410000
Se      8.2721300000    8.6096000000    9.1744700000     -0.1272740000    0.1750520000    0.1043460000
Se      4.9522600000   14.3600100000    9.1744600000      0.1403990000   -0.2019390000    0.0719820000
Se      4.9522100000   14.3599800000    5.8392300000      0.1400140000   -0.2064860000   -0.0650700000
