CRYSTAL
PRIMVEC
   9.9600000000000009   5.7504086809999997   0.0000000000000000
  -4.9800000000000004   8.6256130219999996   0.0000000000000000
   0.0000000000000000   0.0000000000000000  15.0000000000000000
PRIMCOORD
 36   1
Mo      4.9584400000   12.4467500000    7.5068200000      0.0946280000    0.0049570000   -0.0003290000
Mo      3.2983400000    9.5715300000    7.5068200000     -0.0180690000    0.0261570000   -0.0009550000
Mo      8.2784200000    6.6963700000    7.5068200000     -0.1466430000   -0.1350460000    0.0006070000
Mo      6.6184700000    9.5715800000    7.5068200000      0.0511360000    0.1288950000    0.0000130000
Mo     -1.6816600000    6.6963300000    7.5068200000      0.0183380000   -0.0263830000    0.0007550000
Mo     -0.0216400000    3.8210900000    7.5068200000     -0.1009740000    0.2327760000   -0.0007510000
Mo      1.6383900000    0.9459200000    7.5068200000      0.0816950000   -0.2048440000    0.0000190000
Mo      4.9583600000    6.6962900000    7.5068200000      0.1008930000   -0.2326660000    0.0005110000
Mo      6.6183900000    3.8211300000    7.5068200000     -0.0818840000    0.2048530000   -0.0000510000
Mo      3.2984200000    3.8211700000    7.5068200000      0.1464080000    0.1350980000   -0.0005460000
Mo      1.6384700000    6.6963800000    7.5068200000     -0.0509740000   -0.1288430000    0.0003220000
Mo     -0.0215600000    9.5715500000    7.5068200000     -0.0946790000   -0.0049580000    0.0004110000
Se      4.9525100000    8.6097400000    9.1744200000      0.0712380000   -0.1070500000   -0.1573770000
Se      3.2923300000   11.4849300000    5.8392200000     -0.0560390000    0.1348400000    0.0942900000
Se      3.2923800000   11.4849500000    9.1744300000     -0.0544890000    0.1329560000   -0.0943890000
Se      1.6322000000    8.6094900000    9.1744700000     -0.0279330000   -0.0466360000   -0.1015590000
Se      1.6321600000    8.6094500000    5.8391800000     -0.0286120000   -0.0478840000    0.1014450000
Se      6.6124500000    5.7344300000    9.1744300000     -0.0153660000   -0.0293170000    0.2513310000
Se      6.6124100000    5.7343900000    5.8392200000     -0.0143180000   -0.0270680000   -0.2519910000
Se      4.9524600000    8.6097100000    5.8392700000      0.0708820000   -0.1081140000    0.1572570000
Se     -1.6876700000    8.6097300000    5.8392200000      0.0560020000   -0.1347190000   -0.0942750000
Se     -1.6876200000    8.6097400000    9.1744300000      0.0541890000   -0.1332950000    0.0940910000
Se      4.9522100000    2.8591600000    5.8392300000      0.0097030000    0.0473530000   -0.0180570000
Se      4.9522600000    2.8591900000    9.1744600000      0.0086630000    0.0485380000    0.0185720000
Se      3.2921300000    5.7343900000    9.1744700000      0.0191470000    0.0002090000    0.0834130000
Se      3.2920800000    5.7343800000    5.8391800000      0.0205450000    0.0006550000   -0.0839310000
Se     -0.0275400000    5.7345100000    5.8392700000     -0.0700840000    0.1084250000   -0.1575590000
Se     -0.0274900000    5.7345400000    9.1744200000     -0.0712690000    0.1068670000    0.1573750000
Se      6.6122000000   11.4846900000    9.1744700000      0.0278880000    0.0468780000    0.1016690000
Se      1.6324100000    2.8591900000    5.8392200000      0.0144380000    0.0270020000    0.2518920000
Se      1.6324500000    2.8592200000    9.1744300000      0.0147160000    0.0292300000   -0.2514230000
Se      6.6121600000   11.4846600000    5.8391800000      0.0287320000    0.0475870000   -0.1012860000
Se      8.2720800000    8.6095900000    5.8391800000     -0.0203270000   -0.0004790000    0.0839150000
Se      8.2721300000    8.6096000000    9.1744700000     -0.0194570000   -0.0001170000   -0.0831960000
Se      4.9522600000   14.3600100000    9.1744600000     -0.0089630000   -0.0485170000   -0.0184930000
Se      4.9522100000   14.3599800000    5.8392300000     -0.0093110000   -0.0473510000    0.0182740000
