CRYSTAL
PRIMVEC
   9.9600000000000009   5.7504086809999997   0.0000000000000000
  -4.9800000000000004   8.6256130219999996   0.0000000000000000
   0.0000000000000000   0.0000000000000000  15.0000000000000000
PRIMCOORD
 36   1
Mo      4.9584400000   12.4467500000    7.5068200000     -0.0000090000    0.0004440000    0.0078150000
Mo      3.2983400000    9.5715300000    7.5068200000     -0.0005570000   -0.0000630000    0.0058860000
Mo      8.2784200000    6.6963700000    7.5068200000     -0.0003630000   -0.0001360000   -0.0085010000
Mo      6.6184700000    9.5715800000    7.5068200000      0.0005250000   -0.0007240000    0.0009580000
Mo     -1.6816600000    6.6963300000    7.5068200000      0.0004950000    0.0000010000   -0.0061780000
Mo     -0.0216400000    3.8210900000    7.5068200000     -0.0002250000    0.0002520000    0.0054810000
Mo      1.6383900000    0.9459200000    7.5068200000      0.0001410000   -0.0006390000    0.0003490000
Mo      4.9583600000    6.6962900000    7.5068200000      0.0001940000   -0.0001470000   -0.0055470000
Mo      6.6183900000    3.8211300000    7.5068200000     -0.0000500000    0.0005720000   -0.0004610000
Mo      3.2984200000    3.8211700000    7.5068200000      0.0002390000    0.0001750000    0.0086230000
Mo      1.6384700000    6.6963800000    7.5068200000     -0.0003610000    0.0007000000   -0.0008370000
Mo     -0.0215600000    9.5715500000    7.5068200000     -0.0000560000   -0.0004590000   -0.0075850000
Se      4.9525100000    8.6097400000    9.1744200000     -0.0109310000   -0.0077350000   -0.0092950000
Se      3.2923300000   11.4849300000    5.8392200000      0.1234210000    0.0731400000   -0.1275130000
Se      3.2923800000   11.4849500000    9.1744300000     -0.1304610000   -0.0747270000   -0.1266630000
Se      1.6322000000    8.6094900000    9.1744700000     -0.0262630000    0.0908140000    0.2304780000
Se      1.6321600000    8.6094500000    5.8391800000      0.0209700000   -0.0872950000    0.2329660000
Se      6.6124500000    5.7344300000    9.1744300000      0.1382230000    0.0849510000    0.1390480000
Se      6.6124100000    5.7343900000    5.8392200000     -0.1364570000   -0.0826410000    0.1388000000
Se      4.9524600000    8.6097100000    5.8392700000      0.0161840000    0.0073460000   -0.0079710000
Se     -1.6876700000    8.6097300000    5.8392200000     -0.1226990000   -0.0708370000    0.1298300000
Se     -1.6876200000    8.6097400000    9.1744300000      0.1268740000    0.0767240000    0.1288190000
Se      4.9522100000    2.8591600000    5.8392300000     -0.1009660000    0.1817480000   -0.0232520000
Se      4.9522600000    2.8591900000    9.1744600000      0.1059880000   -0.1898130000   -0.0255340000
Se      3.2921300000    5.7343900000    9.1744700000     -0.0757480000    0.0967640000   -0.2080690000
Se      3.2920800000    5.7343800000    5.8391800000      0.0758080000   -0.0919380000   -0.2133720000
Se     -0.0275400000    5.7345100000    5.8392700000     -0.0123050000   -0.0052970000    0.0095690000
Se     -0.0274900000    5.7345400000    9.1744200000      0.0119580000    0.0060250000    0.0115250000
Se      6.6122000000   11.4846900000    9.1744700000      0.0272740000   -0.0914540000   -0.2322830000
Se      1.6324100000    2.8591900000    5.8392200000      0.1357340000    0.0803480000   -0.1366670000
Se      1.6324500000    2.8592200000    9.1744300000     -0.1395800000   -0.0873280000   -0.1373870000
Se      6.6121600000   11.4846600000    5.8391800000     -0.0244170000    0.0840430000   -0.2356110000
Se      8.2720800000    8.6095900000    5.8391800000     -0.0767510000    0.0925460000    0.2115190000
Se      8.2721300000    8.6096000000    9.1744700000      0.0745440000   -0.0940890000    0.2064200000
Se      4.9522600000   14.3600100000    9.1744600000     -0.1025610000    0.1898480000    0.0229580000
Se      4.9522100000   14.3599800000    5.8392300000      0.1022090000   -0.1811360000    0.0216830000
