CRYSTAL
PRIMVEC
   9.9600000000000009   5.7504086809999997   0.0000000000000000
  -4.9800000000000004   8.6256130219999996   0.0000000000000000
   0.0000000000000000   0.0000000000000000  15.0000000000000000
PRIMCOORD
 36   1
Mo      4.9584400000   12.4467500000    7.5068200000      0.0010430000   -0.0010230000   -0.1589820000
Mo      3.2983400000    9.5715300000    7.5068200000      0.0002450000   -0.0014970000    0.1617940000
Mo      8.2784200000    6.6963700000    7.5068200000     -0.0001040000    0.0014460000   -0.1564090000
Mo      6.6184700000    9.5715800000    7.5068200000      0.0004850000    0.0003930000   -0.1634020000
Mo     -1.6816600000    6.6963300000    7.5068200000      0.0002910000   -0.0017910000    0.1616970000
Mo     -0.0216400000    3.8210900000    7.5068200000     -0.0009310000    0.0014210000    0.1591510000
Mo      1.6383900000    0.9459200000    7.5068200000     -0.0005430000   -0.0003730000    0.1577040000
Mo      4.9583600000    6.6962900000    7.5068200000     -0.0007440000    0.0011070000    0.1592930000
Mo      6.6183900000    3.8211300000    7.5068200000     -0.0002100000   -0.0000470000    0.1579480000
Mo      3.2984200000    3.8211700000    7.5068200000     -0.0004760000    0.0016590000   -0.1562750000
Mo      1.6384700000    6.6963800000    7.5068200000      0.0000870000    0.0001810000   -0.1635100000
Mo     -0.0215600000    9.5715500000    7.5068200000      0.0009360000   -0.0014580000   -0.1589710000
Se      4.9525100000    8.6097400000    9.1744200000      0.1190540000    0.0674830000    0.1006060000
Se      3.2923300000   11.4849300000    5.8392200000     -0.1141570000   -0.0699310000    0.1027850000
Se      3.2923800000   11.4849500000    9.1744300000      0.1149430000    0.0683650000    0.1007040000
Se      1.6322000000    8.6094900000    9.1744700000     -0.1212830000   -0.0732210000   -0.1005280000
Se      1.6321600000    8.6094500000    5.8391800000      0.1220950000    0.0710910000   -0.1025910000
Se      6.6124500000    5.7344300000    9.1744300000      0.1144400000    0.0655970000    0.1008960000
Se      6.6124100000    5.7343900000    5.8392200000     -0.1148540000   -0.0637770000    0.1025450000
Se      4.9524600000    8.6097100000    5.8392700000     -0.1171010000   -0.0659870000    0.0999330000
Se     -1.6876700000    8.6097300000    5.8392200000     -0.1141680000   -0.0704370000    0.1025270000
Se     -1.6876200000    8.6097400000    9.1744300000      0.1147290000    0.0678150000    0.1007780000
Se      4.9522100000    2.8591600000    5.8392300000      0.1177040000    0.0692860000   -0.0995370000
Se      4.9522600000    2.8591900000    9.1744600000     -0.1193400000   -0.0705980000   -0.1010160000
Se      3.2921300000    5.7343900000    9.1744700000     -0.1230900000   -0.0661260000   -0.1006550000
Se      3.2920800000    5.7343800000    5.8391800000      0.1222390000    0.0682580000   -0.1025050000
Se     -0.0275400000    5.7345100000    5.8392700000     -0.1176330000   -0.0660790000    0.0996280000
Se     -0.0274900000    5.7345400000    9.1744200000      0.1190040000    0.0673230000    0.1006730000
Se      6.6122000000   11.4846900000    9.1744700000     -0.1211140000   -0.0729930000   -0.1007430000
Se      1.6324100000    2.8591900000    5.8392200000     -0.1154050000   -0.0634550000    0.1026900000
Se      1.6324500000    2.8592200000    9.1744300000      0.1141530000    0.0656070000    0.1008080000
Se      6.6121600000   11.4846600000    5.8391800000      0.1221510000    0.0711240000   -0.1025740000
Se      8.2720800000    8.6095900000    5.8391800000      0.1222880000    0.0683170000   -0.1025610000
Se      8.2721300000    8.6096000000    9.1744700000     -0.1226170000   -0.0661300000   -0.1009670000
Se      4.9522600000   14.3600100000    9.1744600000     -0.1192930000   -0.0705620000   -0.1004600000
Se      4.9522100000   14.3599800000    5.8392300000      0.1174150000    0.0690400000   -0.1002940000
