CRYSTAL
PRIMVEC
   9.9600000000000009   5.7504086809999997   0.0000000000000000
  -4.9800000000000004   8.6256130219999996   0.0000000000000000
   0.0000000000000000   0.0000000000000000  15.0000000000000000
PRIMCOORD
 36   1
Mo      4.9584400000   12.4467500000    7.5068200000     -0.0005410000   -0.0009810000    0.1805690000
Mo      3.2983400000    9.5715300000    7.5068200000     -0.0006820000    0.0000640000   -0.1446190000
Mo      8.2784200000    6.6963700000    7.5068200000     -0.0005590000   -0.0004270000    0.1808140000
Mo      6.6184700000    9.5715800000    7.5068200000     -0.0007750000   -0.0008150000    0.1794060000
Mo     -1.6816600000    6.6963300000    7.5068200000      0.0003370000   -0.0000860000    0.1441880000
Mo     -0.0216400000    3.8210900000    7.5068200000      0.0006230000   -0.0000670000    0.1441680000
Mo      1.6383900000    0.9459200000    7.5068200000      0.0000370000   -0.0004650000    0.1437140000
Mo      4.9583600000    6.6962900000    7.5068200000     -0.0008370000    0.0001960000   -0.1444300000
Mo      6.6183900000    3.8211300000    7.5068200000      0.0002010000    0.0004970000   -0.1428580000
Mo      3.2984200000    3.8211700000    7.5068200000      0.0009940000    0.0004730000   -0.1803230000
Mo      1.6384700000    6.6963800000    7.5068200000      0.0005820000    0.0007340000   -0.1803010000
Mo     -0.0215600000    9.5715500000    7.5068200000      0.0006000000    0.0008770000   -0.1803080000
Se      4.9525100000    8.6097400000    9.1744200000     -0.1185970000   -0.0680970000   -0.0407310000
Se      3.2923300000   11.4849300000    5.8392200000      0.1173910000    0.0689880000   -0.0400530000
Se      3.2923800000   11.4849500000    9.1744300000     -0.1182190000   -0.0694780000   -0.0396180000
Se      1.6322000000    8.6094900000    9.1744700000     -0.0058160000   -0.0029610000   -0.1904940000
Se      1.6321600000    8.6094500000    5.8391800000      0.0054700000    0.0040970000   -0.1915060000
Se      6.6124500000    5.7344300000    9.1744300000     -0.1195440000   -0.0670300000   -0.0394940000
Se      6.6124100000    5.7343900000    5.8392200000      0.1181300000    0.0678480000   -0.0396430000
Se      4.9524600000    8.6097100000    5.8392700000      0.1170430000    0.0679290000   -0.0413600000
Se     -1.6876700000    8.6097300000    5.8392200000     -0.1176110000   -0.0685970000    0.0402780000
Se     -1.6876200000    8.6097400000    9.1744300000      0.1184880000    0.0690170000    0.0398810000
Se      4.9522100000    2.8591600000    5.8392300000      0.0073510000    0.0043740000   -0.1910570000
Se      4.9522600000    2.8591900000    9.1744600000     -0.0055820000   -0.0030080000   -0.1903440000
Se      3.2921300000    5.7343900000    9.1744700000     -0.0059530000   -0.0032030000   -0.1904380000
Se      3.2920800000    5.7343800000    5.8391800000      0.0059960000    0.0033100000   -0.1914210000
Se     -0.0275400000    5.7345100000    5.8392700000     -0.1176740000   -0.0680520000    0.0407290000
Se     -0.0274900000    5.7345400000    9.1744200000      0.1186470000    0.0682920000    0.0401950000
Se      6.6122000000   11.4846900000    9.1744700000      0.0059610000    0.0025330000    0.1900560000
Se      1.6324100000    2.8591900000    5.8392200000     -0.1175980000   -0.0679600000    0.0402960000
Se      1.6324500000    2.8592200000    9.1744300000      0.1193470000    0.0675320000    0.0398250000
Se      6.6121600000   11.4846600000    5.8391800000     -0.0060260000   -0.0038660000    0.1909800000
Se      8.2720800000    8.6095900000    5.8391800000     -0.0058170000   -0.0038000000    0.1910820000
Se      8.2721300000    8.6096000000    9.1744700000      0.0057020000    0.0036340000    0.1902190000
Se      4.9522600000   14.3600100000    9.1744600000      0.0057610000    0.0027770000    0.1909460000
Se      4.9522100000   14.3599800000    5.8392300000     -0.0067650000   -0.0042740000    0.1916570000
