CRYSTAL
PRIMVEC
   9.9600000000000009   5.7504086809999997   0.0000000000000000
  -4.9800000000000004   8.6256130219999996   0.0000000000000000
   0.0000000000000000   0.0000000000000000  15.0000000000000000
PRIMCOORD
 36   1
Mo      4.9584400000   12.4467500000    7.5068200000     -0.1160440000   -0.0127190000    0.0002050000
Mo      3.2983400000    9.5715300000    7.5068200000      0.0856080000    0.1000370000   -0.0000510000
Mo      8.2784200000    6.6963700000    7.5068200000     -0.0827050000   -0.0999080000   -0.0003480000
Mo      6.6184700000    9.5715800000    7.5068200000      0.1990730000    0.1114250000    0.0002550000
Mo     -1.6816600000    6.6963300000    7.5068200000      0.0873820000    0.0999570000    0.0005480000
Mo     -0.0216400000    3.8210900000    7.5068200000      0.1181490000    0.0162790000    0.0006530000
Mo      1.6383900000    0.9459200000    7.5068200000     -0.2054450000   -0.1145030000   -0.0008660000
Mo      4.9583600000    6.6962900000    7.5068200000      0.1186910000    0.0156610000    0.0001670000
Mo      6.6183900000    3.8211300000    7.5068200000     -0.2057780000   -0.1152580000   -0.0000560000
Mo      3.2984200000    3.8211700000    7.5068200000     -0.0829750000   -0.0998780000   -0.0006090000
Mo      1.6384700000    6.6963800000    7.5068200000      0.2012250000    0.1121000000    0.0008150000
Mo     -0.0215600000    9.5715500000    7.5068200000     -0.1171300000   -0.0131840000   -0.0007910000
Se      4.9525100000    8.6097400000    9.1744200000      0.1835380000    0.1028620000   -0.0486650000
Se      3.2923300000   11.4849300000    5.8392200000     -0.1226700000    0.0137180000   -0.0223140000
Se      3.2923800000   11.4849500000    9.1744300000     -0.1228930000    0.0136560000    0.0226260000
Se      1.6322000000    8.6094900000    9.1744700000      0.0644830000    0.1161290000   -0.0276630000
Se      1.6321600000    8.6094500000    5.8391800000      0.0650980000    0.1150530000    0.0276100000
Se      6.6124500000    5.7344300000    9.1744300000     -0.0621220000   -0.1159360000    0.0258500000
Se      6.6124100000    5.7343900000    5.8392200000     -0.0625370000   -0.1158810000   -0.0259020000
Se      4.9524600000    8.6097100000    5.8392700000      0.1841380000    0.1029350000    0.0484750000
Se     -1.6876700000    8.6097300000    5.8392200000     -0.1230620000    0.0127240000   -0.0229530000
Se     -1.6876200000    8.6097400000    9.1744300000     -0.1231930000    0.0139040000    0.0220540000
Se      4.9522100000    2.8591600000    5.8392300000     -0.1887610000   -0.1053810000   -0.0526500000
Se      4.9522600000    2.8591900000    9.1744600000     -0.1891320000   -0.1056920000    0.0517660000
Se      3.2921300000    5.7343900000    9.1744700000      0.1249130000   -0.0119940000   -0.0239520000
Se      3.2920800000    5.7343800000    5.8391800000      0.1243390000   -0.0109990000    0.0242740000
Se     -0.0275400000    5.7345100000    5.8392700000      0.1862150000    0.1035260000    0.0494050000
Se     -0.0274900000    5.7345400000    9.1744200000      0.1861370000    0.1035120000   -0.0478130000
Se      6.6122000000   11.4846900000    9.1744700000      0.0657450000    0.1151740000   -0.0275150000
Se      1.6324100000    2.8591900000    5.8392200000     -0.0636080000   -0.1147780000   -0.0264280000
Se      1.6324500000    2.8592200000    9.1744300000     -0.0626070000   -0.1155240000    0.0258040000
Se      6.6121600000   11.4846600000    5.8391800000      0.0661220000    0.1152560000    0.0284260000
Se      8.2720800000    8.6095900000    5.8391800000      0.1233240000   -0.0108630000    0.0245350000
Se      8.2721300000    8.6096000000    9.1744700000      0.1230400000   -0.0115890000   -0.0242710000
Se      4.9522600000   14.3600100000    9.1744600000     -0.1881210000   -0.1045340000    0.0517680000
Se      4.9522100000   14.3599800000    5.8392300000     -0.1884410000   -0.1052820000   -0.0523600000
