CRYSTAL
PRIMVEC
   9.9600000000000009   5.7504086809999997   0.0000000000000000
  -4.9800000000000004   8.6256130219999996   0.0000000000000000
   0.0000000000000000   0.0000000000000000  15.0000000000000000
PRIMCOORD
 36   1
Mo      4.9584400000   12.4467500000    7.5068200000      0.0005750000    0.0036910000   -0.0001680000
Mo      3.2983400000    9.5715300000    7.5068200000     -0.1163640000    0.2022930000    0.0004160000
Mo      8.2784200000    6.6963700000    7.5068200000     -0.0037600000    0.0017450000   -0.0004610000
Mo      6.6184700000    9.5715800000    7.5068200000     -0.0005440000    0.0014470000    0.0000830000
Mo     -1.6816600000    6.6963300000    7.5068200000      0.1162410000   -0.2023220000   -0.0007390000
Mo     -0.0216400000    3.8210900000    7.5068200000      0.1185590000   -0.2012330000    0.0003660000
Mo      1.6383900000    0.9459200000    7.5068200000      0.1167880000   -0.2017310000   -0.0005550000
Mo      4.9583600000    6.6962900000    7.5068200000     -0.1184310000    0.2011680000    0.0005830000
Mo      6.6183900000    3.8211300000    7.5068200000     -0.1168700000    0.2017230000   -0.0000840000
Mo      3.2984200000    3.8211700000    7.5068200000      0.0036810000   -0.0017510000    0.0007260000
Mo      1.6384700000    6.6963800000    7.5068200000      0.0006410000   -0.0012810000    0.0005220000
Mo     -0.0215600000    9.5715500000    7.5068200000     -0.0006470000   -0.0037450000   -0.0006680000
Se      4.9525100000    8.6097400000    9.1744200000     -0.1154470000    0.1999340000    0.0002320000
Se      3.2923300000   11.4849300000    5.8392200000     -0.1140930000    0.2021670000    0.0009250000
Se      3.2923800000   11.4849500000    9.1744300000     -0.1137490000    0.2026150000   -0.0003090000
Se      1.6322000000    8.6094900000    9.1744700000     -0.0250160000    0.0425410000   -0.0001690000
Se      1.6321600000    8.6094500000    5.8391800000     -0.0242010000    0.0420370000    0.0002310000
Se      6.6124500000    5.7344300000    9.1744300000     -0.1188960000    0.1999280000    0.0002850000
Se      6.6124100000    5.7343900000    5.8392200000     -0.1196190000    0.2002500000   -0.0007110000
Se      4.9524600000    8.6097100000    5.8392700000     -0.1157350000    0.1994980000    0.0007190000
Se     -1.6876700000    8.6097300000    5.8392200000      0.1138990000   -0.2024100000   -0.0016930000
Se     -1.6876200000    8.6097400000    9.1744300000      0.1136890000   -0.2024700000   -0.0004180000
Se      4.9522100000    2.8591600000    5.8392300000     -0.0232160000    0.0400050000    0.0000120000
Se      4.9522600000    2.8591900000    9.1744600000     -0.0227130000    0.0391990000   -0.0000610000
Se      3.2921300000    5.7343900000    9.1744700000     -0.0251070000    0.0417740000    0.0008470000
Se      3.2920800000    5.7343800000    5.8391800000     -0.0250820000    0.0416710000    0.0007660000
Se     -0.0275400000    5.7345100000    5.8392700000      0.1161560000   -0.1998180000   -0.0000510000
Se     -0.0274900000    5.7345400000    9.1744200000      0.1152920000   -0.1995380000    0.0001400000
Se      6.6122000000   11.4846900000    9.1744700000      0.0247520000   -0.0419860000    0.0000950000
Se      1.6324100000    2.8591900000    5.8392200000      0.1193980000   -0.1997450000    0.0008620000
Se      1.6324500000    2.8592200000    9.1744300000      0.1192070000   -0.2005470000   -0.0000590000
Se      6.6121600000   11.4846600000    5.8391800000      0.0243450000   -0.0425380000   -0.0005800000
Se      8.2720800000    8.6095900000    5.8391800000      0.0252240000   -0.0413980000    0.0000460000
Se      8.2721300000    8.6096000000    9.1744700000      0.0250350000   -0.0419540000   -0.0001480000
Se      4.9522600000   14.3600100000    9.1744600000      0.0229350000   -0.0394930000   -0.0004480000
Se      4.9522100000   14.3599800000    5.8392300000      0.0227890000   -0.0397110000   -0.0005420000
