CRYSTAL
PRIMVEC
   9.9600000000000009   5.7504086809999997   0.0000000000000000
  -4.9800000000000004   8.6256130219999996   0.0000000000000000
   0.0000000000000000   0.0000000000000000  15.0000000000000000
PRIMCOORD
 36   1
Mo      4.9584400000   12.4467500000    7.5068200000     -0.0150730000    0.1253060000   -0.0018700000
Mo      3.2983400000    9.5715300000    7.5068200000      0.0519080000    0.0769050000   -0.0016840000
Mo      8.2784200000    6.6963700000    7.5068200000      0.1053640000   -0.1071310000    0.0002930000
Mo      6.6184700000    9.5715800000    7.5068200000     -0.0905230000   -0.0141470000    0.0021040000
Mo     -1.6816600000    6.6963300000    7.5068200000     -0.0518290000   -0.0785150000    0.0018850000
Mo     -0.0216400000    3.8210900000    7.5068200000     -0.1728860000   -0.0575610000    0.0021180000
Mo      1.6383900000    0.9459200000    7.5068200000      0.2211490000    0.1295070000   -0.0024070000
Mo      4.9583600000    6.6962900000    7.5068200000      0.1733810000    0.0566810000   -0.0023030000
Mo      6.6183900000    3.8211300000    7.5068200000     -0.2199960000   -0.1305120000    0.0023430000
Mo      3.2984200000    3.8211700000    7.5068200000     -0.1053160000    0.1088350000   -0.0003760000
Mo      1.6384700000    6.6963800000    7.5068200000      0.0893540000    0.0149690000   -0.0021520000
Mo     -0.0215600000    9.5715500000    7.5068200000      0.0144080000   -0.1243330000    0.0020580000
Se      4.9525100000    8.6097400000    9.1744200000     -0.0050240000    0.0375300000    0.0280020000
Se      3.2923300000   11.4849300000    5.8392200000     -0.0886770000    0.1173680000    0.0188250000
Se      3.2923800000   11.4849500000    9.1744300000     -0.0855410000    0.1155270000   -0.0194390000
Se      1.6322000000    8.6094900000    9.1744700000      0.1037350000   -0.0000530000    0.0005690000
Se      1.6321600000    8.6094500000    5.8391800000      0.1010870000    0.0018630000   -0.0021100000
Se      6.6124500000    5.7344300000    9.1744300000      0.0942640000   -0.1510240000   -0.0087250000
Se      6.6124100000    5.7343900000    5.8392200000      0.0962290000   -0.1540910000    0.0093200000
Se      4.9524600000    8.6097100000    5.8392700000     -0.0021400000    0.0398220000   -0.0298680000
Se     -1.6876700000    8.6097300000    5.8392200000      0.0894660000   -0.1189560000   -0.0186570000
Se     -1.6876200000    8.6097400000    9.1744300000      0.0861820000   -0.1169900000    0.0194430000
Se      4.9522100000    2.8591600000    5.8392300000     -0.2393990000   -0.1195260000    0.0061490000
Se      4.9522600000    2.8591900000    9.1744600000     -0.2405100000   -0.1181740000   -0.0014560000
Se      3.2921300000    5.7343900000    9.1744700000      0.1396650000    0.1211360000   -0.0020880000
Se      3.2920800000    5.7343800000    5.8391800000      0.1398550000    0.1196810000   -0.0026790000
Se     -0.0275400000    5.7345100000    5.8392700000      0.0021780000   -0.0409690000    0.0297990000
Se     -0.0274900000    5.7345400000    9.1744200000      0.0053650000   -0.0389620000   -0.0280390000
Se      6.6122000000   11.4846900000    9.1744700000     -0.1049780000    0.0005730000   -0.0004190000
Se      1.6324100000    2.8591900000    5.8392200000     -0.0950070000    0.1532820000   -0.0092730000
Se      1.6324500000    2.8592200000    9.1744300000     -0.0931100000    0.1503120000    0.0083280000
Se      6.6121600000   11.4846600000    5.8391800000     -0.1023230000   -0.0011020000    0.0021830000
Se      8.2720800000    8.6095900000    5.8391800000     -0.1406310000   -0.1181020000    0.0024280000
Se      8.2721300000    8.6096000000    9.1744700000     -0.1404950000   -0.1195310000    0.0022240000
Se      4.9522600000   14.3600100000    9.1744600000      0.2403720000    0.1196450000    0.0016230000
Se      4.9522100000   14.3599800000    5.8392300000      0.2393290000    0.1207360000   -0.0061520000
