CRYSTAL
PRIMVEC
   9.9600000000000009   5.7504086809999997   0.0000000000000000
  -4.9800000000000004   8.6256130219999996   0.0000000000000000
   0.0000000000000000   0.0000000000000000  15.0000000000000000
PRIMCOORD
 36   1
Mo      4.9584400000   12.4467500000    7.5068200000     -0.1669530000   -0.0969640000   -0.0007300000
Mo      3.2983400000    9.5715300000    7.5068200000     -0.1359550000   -0.0797380000    0.0001960000
Mo      8.2784200000    6.6963700000    7.5068200000     -0.1675660000   -0.0956990000   -0.0003090000
Mo      6.6184700000    9.5715800000    7.5068200000     -0.1702160000   -0.1002260000   -0.0018930000
Mo     -1.6816600000    6.6963300000    7.5068200000      0.1380540000    0.0770200000    0.0002850000
Mo     -0.0216400000    3.8210900000    7.5068200000      0.1352920000    0.0806190000    0.0001700000
Mo      1.6383900000    0.9459200000    7.5068200000      0.1387310000    0.0809900000   -0.0007680000
Mo      4.9583600000    6.6962900000    7.5068200000     -0.1367660000   -0.0789540000    0.0004450000
Mo      6.6183900000    3.8211300000    7.5068200000     -0.1395410000   -0.0803720000    0.0003350000
Mo      3.2984200000    3.8211700000    7.5068200000      0.1671150000    0.0990730000    0.0006310000
Mo      1.6384700000    6.6963800000    7.5068200000      0.1703640000    0.0974740000    0.0011480000
Mo     -0.0215600000    9.5715500000    7.5068200000      0.1675380000    0.0967640000    0.0004860000
Se      4.9525100000    8.6097400000    9.1744200000     -0.1717620000   -0.1003290000    0.0156630000
Se      3.2923300000   11.4849300000    5.8392200000     -0.1729460000   -0.1001610000   -0.0142850000
Se      3.2923800000   11.4849500000    9.1744300000     -0.1720840000   -0.0995710000    0.0139700000
Se      1.6322000000    8.6094900000    9.1744700000      0.0242560000    0.0144470000    0.1047440000
Se      1.6321600000    8.6094500000    5.8391800000      0.0239320000    0.0137730000   -0.1039170000
Se      6.6124500000    5.7344300000    9.1744300000     -0.1720010000   -0.0992150000    0.0144000000
Se      6.6124100000    5.7343900000    5.8392200000     -0.1727180000   -0.0996660000   -0.0142020000
Se      4.9524600000    8.6097100000    5.8392700000     -0.1743280000   -0.1018710000   -0.0168410000
Se     -1.6876700000    8.6097300000    5.8392200000      0.1729850000    0.0983500000    0.0154780000
Se     -1.6876200000    8.6097400000    9.1744300000      0.1718100000    0.0985590000   -0.0153300000
Se      4.9522100000    2.8591600000    5.8392300000      0.0201420000    0.0129790000   -0.1047370000
Se      4.9522600000    2.8591900000    9.1744600000      0.0197610000    0.0129130000    0.1052820000
Se      3.2921300000    5.7343900000    9.1744700000      0.0253200000    0.0149690000    0.1062460000
Se      3.2920800000    5.7343800000    5.8391800000      0.0248820000    0.0146170000   -0.1047850000
Se     -0.0275400000    5.7345100000    5.8392700000      0.1745720000    0.1005240000    0.0152650000
Se     -0.0274900000    5.7345400000    9.1744200000      0.1738020000    0.0997270000   -0.0136490000
Se      6.6122000000   11.4846900000    9.1744700000     -0.0235530000   -0.0173320000   -0.1057200000
Se      1.6324100000    2.8591900000    5.8392200000      0.1716890000    0.1022990000    0.0153460000
Se      1.6324500000    2.8592200000    9.1744300000      0.1711940000    0.1007680000   -0.0151430000
Se      6.6121600000   11.4846600000    5.8391800000     -0.0228370000   -0.0159350000    0.1043920000
Se      8.2720800000    8.6095900000    5.8391800000     -0.0237930000   -0.0131180000    0.1032500000
Se      8.2721300000    8.6096000000    9.1744700000     -0.0250290000   -0.0128790000   -0.1044220000
Se      4.9522600000   14.3600100000    9.1744600000     -0.0212670000   -0.0120400000   -0.1060580000
Se      4.9522100000   14.3599800000    5.8392300000     -0.0219460000   -0.0118230000    0.1050770000
