CRYSTAL
PRIMVEC
   9.9600000000000009   5.7504086809999997   0.0000000000000000
  -4.9800000000000004   8.6256130219999996   0.0000000000000000
   0.0000000000000000   0.0000000000000000  15.0000000000000000
PRIMCOORD
 36   1
Mo      4.9584400000   12.4467500000    7.5068200000      0.0000110000    0.0006790000   -0.0015580000
Mo      3.2983400000    9.5715300000    7.5068200000      0.0007510000   -0.0002310000   -0.0014120000
Mo      8.2784200000    6.6963700000    7.5068200000      0.0007370000   -0.0002490000   -0.0014210000
Mo      6.6184700000    9.5715800000    7.5068200000     -0.0005830000   -0.0003410000    0.0026730000
Mo     -1.6816600000    6.6963300000    7.5068200000      0.0006340000   -0.0002700000   -0.0016740000
Mo     -0.0216400000    3.8210900000    7.5068200000      0.0001760000    0.0006410000   -0.0016170000
Mo      1.6383900000    0.9459200000    7.5068200000     -0.0006530000   -0.0003020000    0.0025120000
Mo      4.9583600000    6.6962900000    7.5068200000      0.0000970000    0.0006060000   -0.0013360000
Mo      6.6183900000    3.8211300000    7.5068200000     -0.0006330000   -0.0002910000    0.0029210000
Mo      3.2984200000    3.8211700000    7.5068200000      0.0007280000   -0.0002590000   -0.0015410000
Mo      1.6384700000    6.6963800000    7.5068200000     -0.0007040000   -0.0003230000    0.0025750000
Mo     -0.0215600000    9.5715500000    7.5068200000      0.0001460000    0.0006570000   -0.0016120000
Se      4.9525100000    8.6097400000    9.1744200000      0.0266730000    0.0115150000    0.2866240000
Se      3.2923300000   11.4849300000    5.8392200000      0.0102470000    0.0245840000   -0.1467220000
Se      3.2923800000   11.4849500000    9.1744300000     -0.0021640000   -0.0250320000   -0.1469950000
Se      1.6322000000    8.6094900000    9.1744700000     -0.0236400000    0.0134680000   -0.1391480000
Se      1.6321600000    8.6094500000    5.8391800000      0.0201350000   -0.0062850000   -0.1390660000
Se      6.6124500000    5.7344300000    9.1744300000     -0.0250860000    0.0124800000   -0.1377450000
Se      6.6124100000    5.7343900000    5.8392200000      0.0216470000   -0.0051720000   -0.1377740000
Se      4.9524600000    8.6097100000    5.8392700000     -0.0312380000   -0.0183360000    0.2860850000
Se     -1.6876700000    8.6097300000    5.8392200000      0.0090900000    0.0245790000   -0.1475810000
Se     -1.6876200000    8.6097400000    9.1744300000     -0.0009370000   -0.0251800000   -0.1480330000
Se      4.9522100000    2.8591600000    5.8392300000     -0.0307320000   -0.0195230000    0.2856700000
Se      4.9522600000    2.8591900000    9.1744600000      0.0260560000    0.0127450000    0.2862910000
Se      3.2921300000    5.7343900000    9.1744700000     -0.0009030000   -0.0243850000   -0.1473480000
Se      3.2920800000    5.7343800000    5.8391800000      0.0089970000    0.0239160000   -0.1470430000
Se     -0.0275400000    5.7345100000    5.8392700000     -0.0311280000   -0.0187940000    0.2853770000
Se     -0.0274900000    5.7345400000    9.1744200000      0.0262830000    0.0121860000    0.2858990000
Se      6.6122000000   11.4846900000    9.1744700000     -0.0253360000    0.0123520000   -0.1390110000
Se      1.6324100000    2.8591900000    5.8392200000      0.0215660000   -0.0057340000   -0.1392380000
Se      1.6324500000    2.8592200000    9.1744300000     -0.0248150000    0.0129750000   -0.1391230000
Se      6.6121600000   11.4846600000    5.8391800000      0.0219300000   -0.0050910000   -0.1388590000
Se      8.2720800000    8.6095900000    5.8391800000      0.0099060000    0.0250490000   -0.1468210000
Se      8.2721300000    8.6096000000    9.1744700000     -0.0018860000   -0.0255270000   -0.1470770000
Se      4.9522600000   14.3600100000    9.1744600000      0.0250850000    0.0119310000    0.2858600000
Se      4.9522100000   14.3599800000    5.8392300000     -0.0297360000   -0.0187320000    0.2851270000
