CRYSTAL
PRIMVEC
   9.9600000000000009   5.7504086809999997   0.0000000000000000
  -4.9800000000000004   8.6256130219999996   0.0000000000000000
   0.0000000000000000   0.0000000000000000  15.0000000000000000
PRIMCOORD
 36   1
Mo      4.9584400000   12.4467500000    7.5068200000     -0.0006470000   -0.0006380000    0.4666310000
Mo      3.2983400000    9.5715300000    7.5068200000      0.0009960000    0.0005070000    0.0065580000
Mo      8.2784200000    6.6963700000    7.5068200000      0.0003500000   -0.0003340000   -0.3321800000
Mo      6.6184700000    9.5715800000    7.5068200000     -0.0008870000    0.0011640000   -0.1344830000
Mo     -1.6816600000    6.6963300000    7.5068200000     -0.0004000000   -0.0003950000   -0.0062090000
Mo     -0.0216400000    3.8210900000    7.5068200000     -0.0000770000    0.0003530000   -0.0196190000
Mo      1.6383900000    0.9459200000    7.5068200000     -0.0002970000    0.0004960000    0.0262120000
Mo      4.9583600000    6.6962900000    7.5068200000      0.0002910000   -0.0006150000    0.0198240000
Mo      6.6183900000    3.8211300000    7.5068200000      0.0003510000   -0.0004220000   -0.0260010000
Mo      3.2984200000    3.8211700000    7.5068200000     -0.0004730000    0.0001810000    0.3319420000
Mo      1.6384700000    6.6963800000    7.5068200000      0.0009800000   -0.0011630000    0.1342350000
Mo     -0.0215600000    9.5715500000    7.5068200000      0.0005850000    0.0006110000   -0.4668820000
Se      4.9525100000    8.6097400000    9.1744200000     -0.0266420000   -0.0076530000    0.0238800000
Se      3.2923300000   11.4849300000    5.8392200000     -0.0802540000   -0.0369410000   -0.0976990000
Se      3.2923800000   11.4849500000    9.1744300000      0.0800840000    0.0372510000   -0.0989400000
Se      1.6322000000    8.6094900000    9.1744700000      0.0700450000   -0.0772980000    0.0708280000
Se      1.6321600000    8.6094500000    5.8391800000     -0.0708980000    0.0775980000    0.0694700000
Se      6.6124500000    5.7344300000    9.1744300000     -0.0538570000   -0.0295900000    0.0742650000
Se      6.6124100000    5.7343900000    5.8392200000      0.0534310000    0.0300330000    0.0742180000
Se      4.9524600000    8.6097100000    5.8392700000      0.0263550000    0.0077480000    0.0238090000
Se     -1.6876700000    8.6097300000    5.8392200000      0.0802830000    0.0370040000    0.0977010000
Se     -1.6876200000    8.6097400000    9.1744300000     -0.0802060000   -0.0373320000    0.0987550000
Se      4.9522100000    2.8591600000    5.8392300000      0.0646810000   -0.1198060000    0.0348460000
Se      4.9522600000    2.8591900000    9.1744600000     -0.0645060000    0.1193690000    0.0345500000
Se      3.2921300000    5.7343900000    9.1744700000     -0.0063410000   -0.0414380000   -0.1051000000
Se      3.2920800000    5.7343800000    5.8391800000      0.0057630000    0.0420860000   -0.1040660000
Se     -0.0275400000    5.7345100000    5.8392700000     -0.0264100000   -0.0076300000   -0.0239220000
Se     -0.0274900000    5.7345400000    9.1744200000      0.0262620000    0.0077090000   -0.0238810000
Se      6.6122000000   11.4846900000    9.1744700000     -0.0700580000    0.0772980000   -0.0705630000
Se      1.6324100000    2.8591900000    5.8392200000     -0.0533650000   -0.0299400000   -0.0741120000
Se      1.6324500000    2.8592200000    9.1744300000      0.0537440000    0.0295880000   -0.0745280000
Se      6.6121600000   11.4846600000    5.8391800000      0.0706790000   -0.0777140000   -0.0695900000
Se      8.2720800000    8.6095900000    5.8391800000     -0.0057990000   -0.0420830000    0.1041040000
Se      8.2721300000    8.6096000000    9.1744700000      0.0063910000    0.0415370000    0.1051660000
Se      4.9522600000   14.3600100000    9.1744600000      0.0645730000   -0.1193010000   -0.0344600000
Se      4.9522100000   14.3599800000    5.8392300000     -0.0647500000    0.1197850000   -0.0347630000
